plant.ini: written by SWAT+ editor v2.1.0 on 2026-02-04 16:56 for SWAT+ rev.2.1.4 and edited with SWATfarmR 2.0.5 on 2026-02-04 17:04:32.419312
pcom_name          plt_cnt  rot_yr_ini          plt_name     lc_status      lai_init       bm_init      phu_init      plnt_pop      yrs_init      rsd_init  
frsd_comm                1           1
                                                    frsd             y             2         50000             0             0             1         10000
frse_comm                1           1
                                                    frse             y             2         50000             0             0             1         10000
frst_comm                1           1
                                                    frst             y             2         50000             0             0             1         10000
orcd_comm_32_1           1           1
                                                    orcd             y             1          1000             0             0             1          1000
orcd_comm_33_1           1           1
                                                    orcd             y             1          1000             0             0             1          1000
urld_comm                1           1
                                                    rnge             y             1          1000             0             0             1          1000
urmd_comm                1           1
                                                    rnge             y             1          1000             0             0             1          1000
wehb_comm                1           1
                                                    wetl             y             2         50000             0             0             1         10000
wetf_comm                1           1
                                                    wetl             y             2         50000             0             0             1         10000
fesc_comm_55_1           1           1
                                                    fesc             y             1          1000             0             0             1          1000
fesc_comm_56_1           1           1
                                                    fesc             y             1          1000             0             0             1          1000
fesc_comm_57_1           1           1
                                                    fesc             y             1          1000             0             0             1          1000
fesc_comm_58_1           1           1
                                                    fesc             y             1          1000             0             0             1          1000
fesc_comm_59_1           1           1
                                                    fesc             y             1          1000             0             0             1          1000
fesc_comm_60_1           1           1
                                                    fesc             y             1          1000             0             0             1          1000
fesc_comm_61_1           1           1
                                                    fesc             y             1          1000             0             0             1          1000
fesc_comm_62_1           1           1
                                                    fesc             y             1          1000             0             0             1          1000
fesc_comm_63_1           1           1
                                                    fesc             y             1          1000             0             0             1          1000
fesc_comm_64_1           1           1
                                                    fesc             y             1          1000             0             0             1          1000
fesc_comm_65_1           1           1
                                                    fesc             y             1          1000             0             0             1          1000
fesc_comm_66_1           1           1
                                                    fesc             y             1          1000             0             0             1          1000
fesc_comm_67_1           1           1
                                                    fesc             y             1          1000             0             0             1          1000
fesc_comm_68_1           1           1
                                                    fesc             y             1          1000             0             0             1          1000
fesc_comm_69_1           1           1
                                                    fesc             y             1          1000             0             0             1          1000
fesc_comm_70_1           1           1
                                                    fesc             y             1          1000             0             0             1          1000
fesc_comm_71_1           1           1
                                                    fesc             y             1          1000             0             0             1          1000
fesc_comm_72_1           1           1
                                                    fesc             y             1          1000             0             0             1          1000
fesc_comm_73_1           1           1
                                                    fesc             y             1          1000             0             0             1          1000
fesc_comm_74_1           1           1
                                                    fesc             y             1          1000             0             0             1          1000
fesc_comm_75_1           1           1
                                                    fesc             y             1          1000             0             0             1          1000
fesc_comm_76_1           1           1
                                                    fesc             y             1          1000             0             0             1          1000
fesc_comm_77_1           1           1
                                                    fesc             y             1          1000             0             0             1          1000
fesc_comm_78_1           1           1
                                                    fesc             y             1          1000             0             0             1          1000
fesc_comm_79_1           1           1
                                                    fesc             y             1          1000             0             0             1          1000
fesc_comm_80_1           1           1
                                                    fesc             y             1          1000             0             0             1          1000
fesc_comm_81_1           1           1
                                                    fesc             y             1          1000             0             0             1          1000
fesc_comm_82_1           1           1
                                                    fesc             y             1          1000             0             0             1          1000
fesc_comm_83_1           1           1
                                                    fesc             y             1          1000             0             0             1          1000
fesc_comm_84_1           1           1
                                                    fesc             y             1          1000             0             0             1          1000
fesc_comm_85_1           1           1
                                                    fesc             y             1          1000             0             0             1          1000
fesc_comm_86_1           1           1
                                                    fesc             y             1          1000             0             0             1          1000
fesc_comm_87_1           1           1
                                                    fesc             y             1          1000             0             0             1          1000
fesc_comm_88_1           1           1
                                                    fesc             y             1          1000             0             0             1          1000
fesc_comm_89_1           1           1
                                                    fesc             y             1          1000             0             0             1          1000
fesc_comm_90_1           1           1
                                                    fesc             y             1          1000             0             0             1          1000
fesc_comm_91_1           1           1
                                                    fesc             y             1          1000             0             0             1          1000
fesc_comm_92_1           1           1
                                                    fesc             y             1          1000             0             0             1          1000
fesc_comm_93_1           1           1
                                                    fesc             y             1          1000             0             0             1          1000
fesc_comm_94_1           1           1
                                                    fesc             y             1          1000             0             0             1          1000
fesc_comm_95_1           1           1
                                                    fesc             y             1          1000             0             0             1          1000
fesc_comm_96_1           1           1
                                                    fesc             y             1          1000             0             0             1          1000
fesc_comm_97_1           1           1
                                                    fesc             y             1          1000             0             0             1          1000
fesc_comm_98_1           1           1
                                                    fesc             y             1          1000             0             0             1          1000
fesc_comm_99_1           1           1
                                                    fesc             y             1          1000             0             0             1          1000
fesc_comm_100_1          1           1
                                                    fesc             y             1          1000             0             0             1          1000
fesc_comm_101_1          1           1
                                                    fesc             y             1          1000             0             0             1          1000
agrl20_comm_102_1        1           1
                                                    lupn             n             0             0             0             0             0             0
agrl26_comm_103_1        1           1
                                                    lupn             n             0             0             0             0             0             0
agrl66_comm_104_1        2           1
                                                    oats             n             0             0             0             0             0             0
                                                    lupn             n             0             0             0             0             0             0
agrl90_comm_105_1        3           1
                                                    barl             n             0             0             0             0             0             0
                                                    lupn             n             0             0             0             0             0             0
                                                    fesc             n             0             0             0             0             0             0
agrl96_comm_106_1        2           1
                                                    lupn             n             0             0             0             0             0             0
                                                    fpea             n             0             0             0             0             0             0
agrl204_comm_107_1       3           1
                                                    lupn             n             0             0             0             0             0             0
                                                    barl             n             0             0             0             0             0             0
                                                    oats             n             0             0             0             0             0             0
agrl207_comm_108_1       4           1
                                                    pota             n             0             0             0             0             0             0
                                                    lupn             n             0             0             0             0             0             0
                                                    barl             n             0             0             0             0             0             0
                                                    buck             n             0             0             0             0             0             0
agrl218_comm_109_1       5           1
                                                    canp             y             1          1000             0             0             1          1000
                                                    lupn             n             0             0             0             0             0             0
                                                    barl             n             0             0             0             0             0             0
                                                    pota             n             0             0             0             0             0             0
                                                    wwht             n             0             0             0             0             0             0
agrl246_comm_110_1       3           1
                                                     rye             y             1          1000             0             0             1          1000
                                                    lupn             n             0             0             0             0             0             0
                                                    buck             n             0             0             0             0             0             0
agrl247_comm_111_1       3           1
                                                     rye             y             1          1000             0             0             1          1000
                                                    lupn             n             0             0             0             0             0             0
                                                    buck             n             0             0             0             0             0             0
agrl253_comm_112_1       4           1
                                                    trit             y             1          1000             0             0             1          1000
                                                    lupn             n             0             0             0             0             0             0
                                                    canp             n             0             0             0             0             0             0
                                                    pota             n             0             0             0             0             0             0
agrl258_comm_113_1       3           1
                                                    trit             y             1          1000             0             0             1          1000
                                                    lupn             n             0             0             0             0             0             0
                                                    canp             n             0             0             0             0             0             0
agrl270_comm_114_1       3           1
                                                    fpea             n             0             0             0             0             0             0
                                                    lupn             n             0             0             0             0             0             0
                                                    csil             n             0             0             0             0             0             0
agrl301_comm_115_1       4           1
                                                     rye             y             1          1000             0             0             1          1000
                                                    lupn             n             0             0             0             0             0             0
                                                    oats             n             0             0             0             0             0             0
                                                    barl             n             0             0             0             0             0             0
agrl342_comm_116_1       4           1
                                                     rye             y             1          1000             0             0             1          1000
                                                    lupn             n             0             0             0             0             0             0
                                                    oats             n             0             0             0             0             0             0
                                                    trit             n             0             0             0             0             0             0
agrl343_comm_117_1       5           1
                                                     rye             y             1          1000             0             0             1          1000
                                                    lupn             n             0             0             0             0             0             0
                                                    oats             n             0             0             0             0             0             0
                                                    trit             n             0             0             0             0             0             0
                                                    buck             n             0             0             0             0             0             0
agrl344_comm_118_1       5           1
                                                     rye             y             1          1000             0             0             1          1000
                                                    lupn             n             0             0             0             0             0             0
                                                    oats             n             0             0             0             0             0             0
                                                    trit             n             0             0             0             0             0             0
                                                    buck             n             0             0             0             0             0             0
agrl382_comm_119_1       5           1
                                                    fpea             n             0             0             0             0             0             0
                                                    lupn             n             0             0             0             0             0             0
                                                     rye             n             0             0             0             0             0             0
                                                    barl             n             0             0             0             0             0             0
                                                    canp             n             0             0             0             0             0             0
agrl386_comm_120_1       3           1
                                                     rye             y             1          1000             0             0             1          1000
                                                    lupn             n             0             0             0             0             0             0
                                                    buck             n             0             0             0             0             0             0
agrl415_comm_121_1       3           1
                                                    pota             n             0             0             0             0             0             0
                                                    lupn             n             0             0             0             0             0             0
                                                    trit             n             0             0             0             0             0             0
agrl430_comm_122_1       5           1
                                                    canp             y             1          1000             0             0             1          1000
                                                    lupn             n             0             0             0             0             0             0
                                                    trit             n             0             0             0             0             0             0
                                                    pota             n             0             0             0             0             0             0
                                                    wwht             n             0             0             0             0             0             0
agrl493_comm_123_1       5           1
                                                    oats             n             0             0             0             0             0             0
                                                    barl             n             0             0             0             0             0             0
                                                    lupn             n             0             0             0             0             0             0
                                                    trit             n             0             0             0             0             0             0
                                                    pota             n             0             0             0             0             0             0
agrl567_comm_124_1       4           1
                                                    pota             n             0             0             0             0             0             0
                                                    barl             n             0             0             0             0             0             0
                                                    canp             n             0             0             0             0             0             0
                                                    trit             n             0             0             0             0             0             0
agrl580_comm_125_1       3           1
                                                    barl             n             0             0             0             0             0             0
                                                    oats             n             0             0             0             0             0             0
                                                    fpea             n             0             0             0             0             0             0
agrl713_comm_126_1       4           1
                                                    lupn             n             0             0             0             0             0             0
                                                    barl             n             0             0             0             0             0             0
                                                    oats             n             0             0             0             0             0             0
                                                     rye             n             0             0             0             0             0             0
agrl727_comm_127_1       3           1
                                                    lupn             n             0             0             0             0             0             0
                                                    barl             n             0             0             0             0             0             0
                                                    oats             n             0             0             0             0             0             0
agrl732_comm_128_1       3           1
                                                    wwht             y             1          1000             0             0             1          1000
                                                    barl             n             0             0             0             0             0             0
                                                    oats             n             0             0             0             0             0             0
agrl750_comm_129_1       2           1
                                                    oats             n             0             0             0             0             0             0
                                                    barl             n             0             0             0             0             0             0
agrl762_comm_130_1       3           1
                                                     rye             y             1          1000             0             0             1          1000
                                                    barl             n             0             0             0             0             0             0
                                                    oats             n             0             0             0             0             0             0
agrl779_comm_131_1       3           1
                                                    barl             n             0             0             0             0             0             0
                                                    oats             n             0             0             0             0             0             0
                                                     rye             n             0             0             0             0             0             0
agrl796_comm_132_1       5           1
                                                    fpea             n             0             0             0             0             0             0
                                                    barl             n             0             0             0             0             0             0
                                                    oats             n             0             0             0             0             0             0
                                                    trit             n             0             0             0             0             0             0
                                                    wwht             n             0             0             0             0             0             0
agrl808_comm_133_1       2           1
                                                    pota             n             0             0             0             0             0             0
                                                    barl             n             0             0             0             0             0             0
agrl811_comm_134_1       5           1
                                                     rye             y             1          1000             0             0             1          1000
                                                    barl             n             0             0             0             0             0             0
                                                    pota             n             0             0             0             0             0             0
                                                    wwht             n             0             0             0             0             0             0
                                                    canp             n             0             0             0             0             0             0