aquifer.con: written by SWAT+ editor v2.1.0 on 2026-02-13 13:24 for SWAT+ rev.2.1.4
      id  name                gis_id          area           lat           lon          elev       aqu               wst       cst      ovfl      rule   out_tot  
       1  aqu1                     0    2873.80864      54.41694      17.33103             0         1     s54426n17292e         0         0         0         0  
