hyd-sed-lte.cha: written by SWAT+ editor v2.1.0 on 2026-02-13 13:24 for SWAT+ rev.2.1.4
name                         order            wd            dp           slp           len          mann             k     erod_fact      cov_fact        wd_rto        eq_slp           d50          clay        carbon        dry_bd      side_slp      bed_load           fps           fpn        n_conc        p_conc         p_bio  description
hydcha1                       null       1.40506       0.20205       0.00122       1.88367       0.05000       1.00000       0.01000       0.00500       6.95385       0.00100      12.00000      50.00000       0.04000       1.00000       0.50000       0.50000       1.00000       1.00000       1.00000       1.00000       1.00000  
hydcha2                       null       0.83534       0.14751       0.00314       1.10239       0.05000       1.00000       0.01000       0.00500       5.66302       0.00100      12.00000      50.00000       0.04000       1.00000       0.50000       0.50000       1.00000       1.00000       1.00000       1.00000       1.00000  
hydcha3                       null       1.29230       0.19208       0.00526       2.84254       0.05000       1.00000       0.01000       0.00500       6.72789       0.00100      12.00000      50.00000       0.04000       1.00000       0.50000       0.50000       1.00000       1.00000       1.00000       1.00000       1.00000  
hydcha4                       null       1.49472       0.20976       0.00170       3.24816       0.05000       1.00000       0.01000       0.00500       7.12581       0.00100      12.00000      50.00000       0.04000       1.00000       0.50000       0.50000       1.00000       1.00000       1.00000       1.00000       1.00000  
hydcha5                       null       2.22233       0.26666       0.00102       2.78711       0.05000       1.00000       0.01000       0.00500       8.33399       0.00100      12.00000      50.00000       0.04000       1.00000       0.50000       0.50000       1.00000       1.00000       1.00000       1.00000       1.00000  
hydcha6                       null       2.56940       0.29113       0.00088       0.81640       0.05000       1.00000       0.01000       0.00500       8.82551       0.00100      12.00000      50.00000       0.04000       1.00000       0.50000       0.50000       1.00000       1.00000       1.00000       1.00000       1.00000  
