hydrology.wet: written by SWAT+ editor v2.1.0 on 2026-02-13 13:24 for SWAT+ rev.2.1.4
name                    hru_ps         dp_ps        hru_es         dp_es             k          evap   vol_area_co      vol_dp_a      vol_dp_b      hru_frac  
hydwet043              0.10000      20.00000       0.25000     100.00000       0.01000       0.70000       1.00000       1.00000       1.00000       0.50000  
hydwet044              0.10000      20.00000       0.25000     100.00000       0.01000       0.70000       1.00000       1.00000       1.00000       0.50000  
hydwet045              0.10000      20.00000       0.25000     100.00000       0.01000       0.70000       1.00000       1.00000       1.00000       0.50000  
hydwet046              0.10000      20.00000       0.25000     100.00000       0.01000       0.70000       1.00000       1.00000       1.00000       0.50000  
hydwet047              0.10000      20.00000       0.25000     100.00000       0.01000       0.70000       1.00000       1.00000       1.00000       0.50000  
hydwet048              0.10000      20.00000       0.25000     100.00000       0.01000       0.70000       1.00000       1.00000       1.00000       0.50000  
hydwet049              0.10000      20.00000       0.25000     100.00000       0.01000       0.70000       1.00000       1.00000       1.00000       0.50000  
hydwet050              0.10000      20.00000       0.25000     100.00000       0.01000       0.70000       1.00000       1.00000       1.00000       0.50000  
hydwet051              0.10000      20.00000       0.25000     100.00000       0.01000       0.70000       1.00000       1.00000       1.00000       0.50000  
hydwet052              0.10000      20.00000       0.25000     100.00000       0.01000       0.70000       1.00000       1.00000       1.00000       0.50000  
hydwet053              0.10000      20.00000       0.25000     100.00000       0.01000       0.70000       1.00000       1.00000       1.00000       0.50000  
hydwet054              0.10000      20.00000       0.25000     100.00000       0.01000       0.70000       1.00000       1.00000       1.00000       0.50000  
hydwet283              0.10000      20.00000       0.25000     100.00000       0.01000       0.70000       1.00000       1.00000       1.00000       0.50000  
hydwet284              0.10000      20.00000       0.25000     100.00000       0.01000       0.70000       1.00000       1.00000       1.00000       0.50000  
hydwet285              0.10000      20.00000       0.25000     100.00000       0.01000       0.70000       1.00000       1.00000       1.00000       0.50000  
hydwet286              0.10000      20.00000       0.25000     100.00000       0.01000       0.70000       1.00000       1.00000       1.00000       0.50000  
hydwet287              0.10000      20.00000       0.25000     100.00000       0.01000       0.70000       1.00000       1.00000       1.00000       0.50000  
