ls_unit.def: written by SWAT+ editor v2.1.0 on 2026-02-13 13:24 for SWAT+ rev.2.1.4
314
      id              name          area  elem_tot  elements  
       1            rtu001       2.00601         1         1  
       2            rtu002       2.77510         1         2  
       3            rtu003       0.69094         1         3  
       4            rtu004       2.04316         1         4  
       5            rtu005       3.04590         1         5  
       6            rtu006       0.42393         1         6  
       7            rtu007       0.97428         1         7  
       8            rtu008       0.72520         1         8  
       9            rtu009      49.73658         1         9  
      10            rtu010       0.60986         1        10  
      11            rtu011       0.35523         1        11  
      12            rtu012       0.61424         1        12  
      13            rtu013       2.11889         1        13  
      14            rtu014       0.51370         1        14  
      15            rtu015      19.41950         1        15  
      16            rtu016       2.79544         1        16  
      17            rtu017      10.41524         1        17  
      18            rtu018       0.83807         1        18  
      19            rtu019       5.66622         1        19  
      20            rtu020       3.65913         1        20  
      21            rtu021       0.73973         1        21  
      22            rtu022       0.80605         1        22  
      23            rtu023       2.17559         1        23  
      24            rtu024       9.03557         1        24  
      25            rtu025       1.00081         1        25  
      26            rtu026       3.92003         1        26  
      27            rtu027      16.11778         1        27  
      28            rtu028       5.29704         1        28  
      29            rtu029       0.53098         1        29  
      30            rtu030       0.46866         1        30  
      31            rtu031       5.91237         1        31  
      32            rtu032       1.58304         1        32  
      33            rtu033       0.39290         1        33  
      34            rtu034       0.40536         1        34  
      35            rtu035       0.69857         1        35  
      36            rtu036       0.74048         1        36  
      37            rtu037       0.32779         1        37  
      38            rtu038       0.47821         1        38  
      39            rtu039       0.74424         1        39  
      40            rtu040       0.40501         1        40  
      41            rtu041       8.95053         1        41  
      42            rtu042       1.52955         1        42  
      43            rtu043       0.75952         1        43  
      44            rtu044       1.19737         1        44  
      45            rtu045       0.59434         1        45  
      46            rtu046       2.78553         1        46  
      47            rtu047       5.07140         1        47  
      48            rtu048       0.31744         1        48  
      49            rtu049       0.36235         1        49  
      50            rtu050       0.51943         1        50  
      51            rtu051       0.78599         1        51  
      52            rtu052       1.14396         1        52  
      53            rtu053       2.53775         1        53  
      54            rtu054       0.60184         1        54  
      55            rtu055       1.47187         1        55  
      56            rtu056       4.28018         1        56  
      57            rtu057       1.02918         1        57  
      58            rtu058       0.34496         1        58  
      59            rtu059       0.46361         1        59  
      60            rtu060       2.03557         1        60  
      61            rtu061       0.74494         1        61  
      62            rtu062       0.59342         1        62  
      63            rtu063       1.26113         1        63  
      64            rtu064       0.77902         1        64  
      65            rtu065       1.07365         1        65  
      66            rtu066       0.67146         1        66  
      67            rtu067       0.46332         1        67  
      68            rtu068       0.49434         1        68  
      69            rtu069       0.41811         1        69  
      70            rtu070       0.33298         1        70  
      71            rtu071       0.46000         1        71  
      72            rtu072       0.48630         1        72  
      73            rtu073       0.59449         1        73  
      74            rtu074       0.75008         1        74  
      75            rtu075       2.11382         1        75  
      76            rtu076       3.45195         1        76  
      77            rtu077       5.38574         1        77  
      78            rtu078       6.97859         1        78  
      79            rtu079       0.56867         1        79  
      80            rtu080       0.43539         1        80  
      81            rtu081       3.45014         1        81  
      82            rtu082      10.04280         1        82  
      83            rtu083       8.48163         1        83  
      84            rtu084       8.70487         1        84  
      85            rtu085       1.36178         1        85  
      86            rtu086      12.53143         1        86  
      87            rtu087       2.51297         1        87  
      88            rtu088      19.95162         1        88  
      89            rtu089       3.10952         1        89  
      90            rtu090       2.47986         1        90  
      91            rtu091       4.27827         1        91  
      92            rtu092       0.48455         1        92  
      93            rtu093      28.96074         1        93  
      94            rtu094       8.27483         1        94  
      95            rtu095       0.45745         1        95  
      96            rtu096      10.63272         1        96  
      97            rtu097       0.33932         1        97  
      98            rtu098       0.39019         1        98  
      99            rtu099       0.52400         1        99  
     100            rtu100       6.10207         1       100  
     101            rtu101       2.92783         1       101  
     102            rtu102       1.27666         1       102  
     103            rtu103       1.38659         1       103  
     104            rtu104       2.54879         1       104  
     105            rtu105       5.11141         1       105  
     106            rtu106      20.91879         1       106  
     107            rtu107       3.14551         1       107  
     108            rtu108       1.89238         1       108  
     109            rtu109       3.00112         1       109  
     110            rtu110       4.61266         1       110  
     111            rtu111       4.49428         1       111  
     112            rtu112      67.87548         1       112  
     113            rtu113      18.81430         1       113  
     114            rtu114       2.37564         1       114  
     115            rtu115       4.19043         1       115  
     116            rtu116       6.38544         1       116  
     117            rtu117       0.58095         1       117  
     118            rtu118       3.22023         1       118  
     119            rtu119       5.04438         1       119  
     120            rtu120       2.25534         1       120  
     121            rtu121       7.77136         1       121  
     122            rtu122       4.34168         1       122  
     123            rtu123       6.03198         1       123  
     124            rtu124       9.21062         1       124  
     125            rtu125       3.99994         1       125  
     126            rtu126      31.29909         1       126  
     127            rtu127       1.84773         1       127  
     128            rtu128       1.20708         1       128  
     129            rtu129       1.26279         1       129  
     130            rtu130       2.94194         1       130  
     131            rtu131       2.22830         1       131  
     132            rtu132       3.37709         1       132  
     133            rtu133       0.32853         1       133  
     134            rtu134      58.42144         1       134  
     135            rtu135       1.22089         1       135  
     136            rtu136       0.35193         1       136  
     137            rtu137       4.15601         1       137  
     138            rtu138       1.17315         1       138  
     139            rtu139       0.83472         1       139  
     140            rtu140       0.55891         1       140  
     141            rtu141       4.83612         1       141  
     142            rtu142       0.47274         1       142  
     143            rtu143       3.64358         1       143  
     144            rtu144       2.58861         1       144  
     145            rtu145       3.60221         1       145  
     146            rtu146       5.48700         1       146  
     147            rtu147       1.33010         1       147  
     148            rtu148       1.98224         1       148  
     149            rtu149       9.97063         1       149  
     150            rtu150      47.53331         1       150  
     151            rtu151      86.41256         1       151  
     152            rtu152       0.68247         1       152  
     153            rtu153      23.97866         1       153  
     154            rtu154      35.07880         1       154  
     155            rtu155       1.70475         1       155  
     156            rtu156       1.71400         1       156  
     157            rtu157      31.12765         1       157  
     158            rtu158      22.07487         1       158  
     159            rtu159       1.96851         1       159  
     160            rtu160       2.35970         1       160  
     161            rtu161       6.13711         1       161  
     162            rtu162      30.09904         1       162  
     163            rtu163       3.17005         1       163  
     164            rtu164       5.99746         1       164  
     165            rtu165       2.02859         1       165  
     166            rtu166       0.66560         1       166  
     167            rtu167       4.05641         1       167  
     168            rtu168       0.68192         1       168  
     169            rtu169       5.03818         1       169  
     170            rtu170       0.76158         1       170  
     171            rtu171      37.60547         1       171  
     172            rtu172       2.03622         1       172  
     173            rtu173       1.78876         1       173  
     174            rtu174       3.67219         1       174  
     175            rtu175       6.56947         1       175  
     176            rtu176       3.05332         1       176  
     177            rtu177       2.30422         1       177  
     178            rtu178       0.59347         1       178  
     179            rtu179       1.25916         1       179  
     180            rtu180      59.08860         1       180  
     181            rtu181       2.49400         1       181  
     182            rtu182       0.36441         1       182  
     183            rtu183       0.41673         1       183  
     184            rtu184       5.61561         1       184  
     185            rtu185       5.11508         1       185  
     186            rtu186       3.19921         1       186  
     187            rtu187       1.79419         1       187  
     188            rtu188       2.64737         1       188  
     189            rtu189       2.45570         1       189  
     190            rtu190       0.79102         1       190  
     191            rtu191       1.36346         1       191  
     192            rtu192       2.12660         1       192  
     193            rtu193       2.53569         1       193  
     194            rtu194      22.50731         1       194  
     195            rtu195       1.54918         1       195  
     196            rtu196       4.66038         1       196  
     197            rtu197       4.15540         1       197  
     198            rtu198       4.15410         1       198  
     199            rtu199       0.95005         1       199  
     200            rtu200       1.01892         1       200  
     201            rtu201      20.01237         1       201  
     202            rtu202       2.55706         1       202  
     203            rtu203      13.47582         1       203  
     204            rtu204       2.47616         1       204  
     205            rtu205       1.26925         1       205  
     206            rtu206       0.91696         1       206  
     207            rtu207       6.87769         1       207  
     208            rtu208       3.34606         1       208  
     209            rtu209      64.48768         1       209  
     210            rtu210       4.69410         1       210  
     211            rtu211       8.74779         1       211  
     212            rtu212       3.94768         1       212  
     213            rtu213       1.84357         1       213  
     214            rtu214       3.74552         1       214  
     215            rtu215       2.87186         1       215  
     216            rtu216       2.62625         1       216  
     217            rtu217       3.51525         1       217  
     218            rtu218       0.82624         1       218  
     219            rtu219       4.44973         1       219  
     220            rtu220       2.39430         1       220  
     221            rtu221      19.00933         1       221  
     222            rtu222       5.19892         1       222  
     223            rtu223       3.74594         1       223  
     224            rtu224      32.14453         1       224  
     225            rtu225       5.53450         1       225  
     226            rtu226       3.74990         1       226  
     227            rtu227       6.87474         1       227  
     228            rtu228       1.01222         1       228  
     229            rtu229       2.00124         1       229  
     230            rtu230       1.30910         1       230  
     231            rtu231      16.09332         1       231  
     232            rtu232       1.17321         1       232  
     233            rtu233       1.33549         1       233  
     234            rtu234       4.03697         1       234  
     235            rtu235       2.35308         1       235  
     236            rtu236       6.50423         1       236  
     237            rtu237      27.27216         1       237  
     238            rtu238       2.26923         1       238  
     239            rtu239       2.99909         1       239  
     240            rtu240       0.89464         1       240  
     241            rtu241      91.63273         1       241  
     242            rtu242      20.19700         1       242  
     243            rtu243       3.33410         1       243  
     244            rtu244       2.98624         1       244  
     245            rtu245       8.20835         1       245  
     246            rtu246       0.40488         1       246  
     247            rtu247      37.58646         1       247  
     248            rtu248      87.30537         1       248  
     249            rtu249      14.30902         1       249  
     250            rtu250       2.45683         1       250  
     251            rtu251      60.63432         1       251  
     252            rtu252       0.38399         1       252  
     253            rtu253      54.32203         1       253  
     254            rtu254      59.65715         1       254  
     255            rtu255       1.93161         1       255  
     256            rtu256       1.16288         1       256  
     257            rtu257      51.90305         1       257  
     258            rtu258      51.89920         1       258  
     259            rtu259       2.39799         1       259  
     260            rtu260       9.05086         1       260  
     261            rtu261      17.42291         1       261  
     262            rtu262      12.96905         1       262  
     263            rtu263       3.36112         1       263  
     264            rtu264       3.56227         1       264  
     265            rtu265       1.44223         1       265  
     266            rtu266       7.82579         1       266  
     267            rtu267       0.71094         1       267  
     268            rtu268      60.74452         1       268  
     269            rtu269      53.00960         1       269  
     270            rtu270       7.85826         1       270  
     271            rtu271      63.95699         1       271  
     272            rtu272      64.35419         1       272  
     273            rtu273      66.18850         1       273  
     274            rtu274      52.65767         1       274  
     275            rtu275      51.34156         1       275  
     276            rtu276      54.91069         1       276  
     277            rtu277      64.20559         1       277  
     278            rtu278       7.67736         1       278  
     279            rtu279       9.10721         1       279  
     280            rtu280       8.54663         1       280  
     281            rtu281       1.34308         1       281  
     282            rtu282       0.55928         1       282  
     283            rtu283      36.87602         1       283  
     284            rtu284       2.76808         1       284  
     285            rtu285       1.10462         1       285  
     286            rtu286       0.64501         1       286  
     287            rtu287       0.37887         1       287  
     288            rtu288       0.41157         1       288  
     289            rtu289      34.60911         1       289  
     290            rtu290       0.66480         1       290  
     291            rtu291       2.19482         1       291  
     292            rtu292      13.22121         1       292  
     293            rtu293       4.89763         1       293  
     294            rtu294       0.48917         1       294  
     295            rtu295       0.64004         1       295  
     296            rtu296       1.58750         1       296  
     297            rtu297       2.64515         1       297  
     298            rtu298       2.58835         1       298  
     299            rtu299       1.26039         1       299  
     300            rtu300       1.24053         1       300  
     301            rtu301       1.95487         1       301  
     302            rtu302       1.29670         1       302  
     303            rtu303       1.52761         1       303  
     304            rtu304       4.96830         1       304  
     305            rtu305       1.46441         1       305  
     306            rtu306       6.62664         1       306  
     307            rtu307       6.44064         1       307  
     308            rtu308       0.77405         1       308  
     309            rtu309       1.52274         1       309  
     310            rtu310      25.47273         1       310  
     311            rtu311      24.90330         1       311  
     312            rtu312       0.30656         1       312  
     313            rtu313       1.01345         1       313  
     314            rtu314       1.49745         1       314  
