ls_unit.ele: written by SWAT+ editor v2.1.0 on 2026-02-13 13:24 for SWAT+ rev.2.1.4
      id  name                   obj_typ  obj_typ_no      bsn_frac      sub_frac      reg_frac  
       1  hru001                     hru           1     7.0069E-4       1.00000       0.00000  
       2  hru002                     hru           2     9.6933E-4       1.00000       0.00000  
       3  hru003                     hru           3     2.4134E-4       1.00000       0.00000  
       4  hru004                     hru           4     7.1367E-4       1.00000       0.00000  
       5  hru005                     hru           5     1.0639E-3       1.00000       0.00000  
       6  hru006                     hru           6     1.4807E-4       1.00000       0.00000  
       7  hru007                     hru           7     3.4031E-4       1.00000       0.00000  
       8  hru008                     hru           8     2.5331E-4       1.00000       0.00000  
       9  hru009                     hru           9     1.7373E-2       1.00000       0.00000  
      10  hru010                     hru          10     2.1302E-4       1.00000       0.00000  
      11  hru011                     hru          11     1.2408E-4       1.00000       0.00000  
      12  hru012                     hru          12     2.1455E-4       1.00000       0.00000  
      13  hru013                     hru          13     7.4012E-4       1.00000       0.00000  
      14  hru014                     hru          14     1.7943E-4       1.00000       0.00000  
      15  hru015                     hru          15     6.7831E-3       1.00000       0.00000  
      16  hru016                     hru          16     9.7643E-4       1.00000       0.00000  
      17  hru017                     hru          17     3.6380E-3       1.00000       0.00000  
      18  hru018                     hru          18     2.9273E-4       1.00000       0.00000  
      19  hru019                     hru          19     1.9792E-3       1.00000       0.00000  
      20  hru020                     hru          20     1.2781E-3       1.00000       0.00000  
      21  hru021                     hru          21     2.5838E-4       1.00000       0.00000  
      22  hru022                     hru          22     2.8155E-4       1.00000       0.00000  
      23  hru023                     hru          23     7.5992E-4       1.00000       0.00000  
      24  hru024                     hru          24     3.1561E-3       1.00000       0.00000  
      25  hru025                     hru          25     3.4958E-4       1.00000       0.00000  
      26  hru026                     hru          26     1.3692E-3       1.00000       0.00000  
      27  hru027                     hru          27     5.6298E-3       1.00000       0.00000  
      28  hru028                     hru          28     1.8502E-3       1.00000       0.00000  
      29  hru029                     hru          29     1.8547E-4       1.00000       0.00000  
      30  hru030                     hru          30     1.6370E-4       1.00000       0.00000  
      31  hru031                     hru          31     2.0652E-3       1.00000       0.00000  
      32  hru032                     hru          32     5.5295E-4       1.00000       0.00000  
      33  hru033                     hru          33     1.3724E-4       1.00000       0.00000  
      34  hru034                     hru          34     1.4159E-4       1.00000       0.00000  
      35  hru035                     hru          35     2.4401E-4       1.00000       0.00000  
      36  hru036                     hru          36     2.5864E-4       1.00000       0.00000  
      37  hru037                     hru          37     1.1450E-4       1.00000       0.00000  
      38  hru038                     hru          38     1.6704E-4       1.00000       0.00000  
      39  hru039                     hru          39     2.5996E-4       1.00000       0.00000  
      40  hru040                     hru          40     1.4147E-4       1.00000       0.00000  
      41  hru041                     hru          41     3.1264E-3       1.00000       0.00000  
      42  hru042                     hru          42     5.3426E-4       1.00000       0.00000  
      43  hru043                     hru          43     2.6530E-4       1.00000       0.00000  
      44  hru044                     hru          44     4.1823E-4       1.00000       0.00000  
      45  hru045                     hru          45     2.0760E-4       1.00000       0.00000  
      46  hru046                     hru          46     9.7297E-4       1.00000       0.00000  
      47  hru047                     hru          47     1.7714E-3       1.00000       0.00000  
      48  hru048                     hru          48     1.1088E-4       1.00000       0.00000  
      49  hru049                     hru          49     1.2657E-4       1.00000       0.00000  
      50  hru050                     hru          50     1.8144E-4       1.00000       0.00000  
      51  hru051                     hru          51     2.7454E-4       1.00000       0.00000  
      52  hru052                     hru          52     3.9958E-4       1.00000       0.00000  
      53  hru053                     hru          53     8.8642E-4       1.00000       0.00000  
      54  hru054                     hru          54     2.1022E-4       1.00000       0.00000  
      55  hru055                     hru          55     5.1412E-4       1.00000       0.00000  
      56  hru056                     hru          56     1.4950E-3       1.00000       0.00000  
      57  hru057                     hru          57     3.5949E-4       1.00000       0.00000  
      58  hru058                     hru          58     1.2049E-4       1.00000       0.00000  
      59  hru059                     hru          59     1.6193E-4       1.00000       0.00000  
      60  hru060                     hru          60     7.1101E-4       1.00000       0.00000  
      61  hru061                     hru          61     2.6020E-4       1.00000       0.00000  
      62  hru062                     hru          62     2.0728E-4       1.00000       0.00000  
      63  hru063                     hru          63     4.4051E-4       1.00000       0.00000  
      64  hru064                     hru          64     2.7211E-4       1.00000       0.00000  
      65  hru065                     hru          65     3.7502E-4       1.00000       0.00000  
      66  hru066                     hru          66     2.3454E-4       1.00000       0.00000  
      67  hru067                     hru          67     1.6184E-4       1.00000       0.00000  
      68  hru068                     hru          68     1.7267E-4       1.00000       0.00000  
      69  hru069                     hru          69     1.4605E-4       1.00000       0.00000  
      70  hru070                     hru          70     1.1631E-4       1.00000       0.00000  
      71  hru071                     hru          71     1.6068E-4       1.00000       0.00000  
      72  hru072                     hru          72     1.6986E-4       1.00000       0.00000  
      73  hru073                     hru          73     2.0765E-4       1.00000       0.00000  
      74  hru074                     hru          74     2.6200E-4       1.00000       0.00000  
      75  hru075                     hru          75     7.3835E-4       1.00000       0.00000  
      76  hru076                     hru          76     1.2057E-3       1.00000       0.00000  
      77  hru077                     hru          77     1.8812E-3       1.00000       0.00000  
      78  hru078                     hru          78     2.4376E-3       1.00000       0.00000  
      79  hru079                     hru          79     1.9863E-4       1.00000       0.00000  
      80  hru080                     hru          80     1.5208E-4       1.00000       0.00000  
      81  hru081                     hru          81     1.2051E-3       1.00000       0.00000  
      82  hru082                     hru          82     3.5079E-3       1.00000       0.00000  
      83  hru083                     hru          83     2.9626E-3       1.00000       0.00000  
      84  hru084                     hru          84     3.0406E-3       1.00000       0.00000  
      85  hru085                     hru          85     4.7566E-4       1.00000       0.00000  
      86  hru086                     hru          86     4.3772E-3       1.00000       0.00000  
      87  hru087                     hru          87     8.7777E-4       1.00000       0.00000  
      88  hru088                     hru          88     6.9690E-3       1.00000       0.00000  
      89  hru089                     hru          89     1.0861E-3       1.00000       0.00000  
      90  hru090                     hru          90     8.6620E-4       1.00000       0.00000  
      91  hru091                     hru          91     1.4944E-3       1.00000       0.00000  
      92  hru092                     hru          92     1.6925E-4       1.00000       0.00000  
      93  hru093                     hru          93     1.0116E-2       1.00000       0.00000  
      94  hru094                     hru          94     2.8904E-3       1.00000       0.00000  
      95  hru095                     hru          95     1.5978E-4       1.00000       0.00000  
      96  hru096                     hru          96     3.7139E-3       1.00000       0.00000  
      97  hru097                     hru          97     1.1852E-4       1.00000       0.00000  
      98  hru098                     hru          98     1.3629E-4       1.00000       0.00000  
      99  hru099                     hru          99     1.8303E-4       1.00000       0.00000  
     100  hru100                     hru         100     2.1314E-3       1.00000       0.00000  
     101  hru101                     hru         101     1.0227E-3       1.00000       0.00000  
     102  hru102                     hru         102     4.4593E-4       1.00000       0.00000  
     103  hru103                     hru         103     4.8433E-4       1.00000       0.00000  
     104  hru104                     hru         104     8.9028E-4       1.00000       0.00000  
     105  hru105                     hru         105     1.7854E-3       1.00000       0.00000  
     106  hru106                     hru         106     7.3068E-3       1.00000       0.00000  
     107  hru107                     hru         107     1.0987E-3       1.00000       0.00000  
     108  hru108                     hru         108     6.6100E-4       1.00000       0.00000  
     109  hru109                     hru         109     1.0483E-3       1.00000       0.00000  
     110  hru110                     hru         110     1.6112E-3       1.00000       0.00000  
     111  hru111                     hru         111     1.5698E-3       1.00000       0.00000  
     112  hru112                     hru         112     2.3709E-2       1.00000       0.00000  
     113  hru113                     hru         113     6.5717E-3       1.00000       0.00000  
     114  hru114                     hru         114     8.2980E-4       1.00000       0.00000  
     115  hru115                     hru         115     1.4637E-3       1.00000       0.00000  
     116  hru116                     hru         116     2.2304E-3       1.00000       0.00000  
     117  hru117                     hru         117     2.0292E-4       1.00000       0.00000  
     118  hru118                     hru         118     1.1248E-3       1.00000       0.00000  
     119  hru119                     hru         119     1.7620E-3       1.00000       0.00000  
     120  hru120                     hru         120     7.8778E-4       1.00000       0.00000  
     121  hru121                     hru         121     2.7145E-3       1.00000       0.00000  
     122  hru122                     hru         122     1.5165E-3       1.00000       0.00000  
     123  hru123                     hru         123     2.1069E-3       1.00000       0.00000  
     124  hru124                     hru         124     3.2172E-3       1.00000       0.00000  
     125  hru125                     hru         125     1.3972E-3       1.00000       0.00000  
     126  hru126                     hru         126     1.0933E-2       1.00000       0.00000  
     127  hru127                     hru         127     6.4540E-4       1.00000       0.00000  
     128  hru128                     hru         128     4.2163E-4       1.00000       0.00000  
     129  hru129                     hru         129     4.4109E-4       1.00000       0.00000  
     130  hru130                     hru         130     1.0276E-3       1.00000       0.00000  
     131  hru131                     hru         131     7.7833E-4       1.00000       0.00000  
     132  hru132                     hru         132     1.1796E-3       1.00000       0.00000  
     133  hru133                     hru         133     1.1475E-4       1.00000       0.00000  
     134  hru134                     hru         134     2.0406E-2       1.00000       0.00000  
     135  hru135                     hru         135     4.2645E-4       1.00000       0.00000  
     136  hru136                     hru         136     1.2293E-4       1.00000       0.00000  
     137  hru137                     hru         137     1.4517E-3       1.00000       0.00000  
     138  hru138                     hru         138     4.0977E-4       1.00000       0.00000  
     139  hru139                     hru         139     2.9156E-4       1.00000       0.00000  
     140  hru140                     hru         140     1.9523E-4       1.00000       0.00000  
     141  hru141                     hru         141     1.6892E-3       1.00000       0.00000  
     142  hru142                     hru         142     1.6513E-4       1.00000       0.00000  
     143  hru143                     hru         143     1.2727E-3       1.00000       0.00000  
     144  hru144                     hru         144     9.0419E-4       1.00000       0.00000  
     145  hru145                     hru         145     1.2582E-3       1.00000       0.00000  
     146  hru146                     hru         146     1.9166E-3       1.00000       0.00000  
     147  hru147                     hru         147     4.6460E-4       1.00000       0.00000  
     148  hru148                     hru         148     6.9238E-4       1.00000       0.00000  
     149  hru149                     hru         149     3.4827E-3       1.00000       0.00000  
     150  hru150                     hru         150     1.6603E-2       1.00000       0.00000  
     151  hru151                     hru         151     3.0183E-2       1.00000       0.00000  
     152  hru152                     hru         152     2.3838E-4       1.00000       0.00000  
     153  hru153                     hru         153     8.3756E-3       1.00000       0.00000  
     154  hru154                     hru         154     1.2253E-2       1.00000       0.00000  
     155  hru155                     hru         155     5.9546E-4       1.00000       0.00000  
     156  hru156                     hru         156     5.9869E-4       1.00000       0.00000  
     157  hru157                     hru         157     1.0873E-2       1.00000       0.00000  
     158  hru158                     hru         158     7.7106E-3       1.00000       0.00000  
     159  hru159                     hru         159     6.8759E-4       1.00000       0.00000  
     160  hru160                     hru         160     8.2423E-4       1.00000       0.00000  
     161  hru161                     hru         161     2.1437E-3       1.00000       0.00000  
     162  hru162                     hru         162     1.0513E-2       1.00000       0.00000  
     163  hru163                     hru         163     1.1073E-3       1.00000       0.00000  
     164  hru164                     hru         164     2.0949E-3       1.00000       0.00000  
     165  hru165                     hru         165     7.0857E-4       1.00000       0.00000  
     166  hru166                     hru         166     2.3249E-4       1.00000       0.00000  
     167  hru167                     hru         167     1.4169E-3       1.00000       0.00000  
     168  hru168                     hru         168     2.3819E-4       1.00000       0.00000  
     169  hru169                     hru         169     1.7598E-3       1.00000       0.00000  
     170  hru170                     hru         170     2.6602E-4       1.00000       0.00000  
     171  hru171                     hru         171     1.3135E-2       1.00000       0.00000  
     172  hru172                     hru         172     7.1124E-4       1.00000       0.00000  
     173  hru173                     hru         173     6.2480E-4       1.00000       0.00000  
     174  hru174                     hru         174     1.2827E-3       1.00000       0.00000  
     175  hru175                     hru         175     2.2947E-3       1.00000       0.00000  
     176  hru176                     hru         176     1.0665E-3       1.00000       0.00000  
     177  hru177                     hru         177     8.0485E-4       1.00000       0.00000  
     178  hru178                     hru         178     2.0729E-4       1.00000       0.00000  
     179  hru179                     hru         179     4.3982E-4       1.00000       0.00000  
     180  hru180                     hru         180     2.0639E-2       1.00000       0.00000  
     181  hru181                     hru         181     8.7114E-4       1.00000       0.00000  
     182  hru182                     hru         182     1.2728E-4       1.00000       0.00000  
     183  hru183                     hru         183     1.4556E-4       1.00000       0.00000  
     184  hru184                     hru         184     1.9615E-3       1.00000       0.00000  
     185  hru185                     hru         185     1.7867E-3       1.00000       0.00000  
     186  hru186                     hru         186     1.1175E-3       1.00000       0.00000  
     187  hru187                     hru         187     6.2670E-4       1.00000       0.00000  
     188  hru188                     hru         188     9.2471E-4       1.00000       0.00000  
     189  hru189                     hru         189     8.5776E-4       1.00000       0.00000  
     190  hru190                     hru         190     2.7630E-4       1.00000       0.00000  
     191  hru191                     hru         191     4.7625E-4       1.00000       0.00000  
     192  hru192                     hru         192     7.4281E-4       1.00000       0.00000  
     193  hru193                     hru         193     8.8570E-4       1.00000       0.00000  
     194  hru194                     hru         194     7.8617E-3       1.00000       0.00000  
     195  hru195                     hru         195     5.4112E-4       1.00000       0.00000  
     196  hru196                     hru         196     1.6278E-3       1.00000       0.00000  
     197  hru197                     hru         197     1.4515E-3       1.00000       0.00000  
     198  hru198                     hru         198     1.4510E-3       1.00000       0.00000  
     199  hru199                     hru         199     3.3185E-4       1.00000       0.00000  
     200  hru200                     hru         200     3.5590E-4       1.00000       0.00000  
     201  hru201                     hru         201     6.9902E-3       1.00000       0.00000  
     202  hru202                     hru         202     8.9317E-4       1.00000       0.00000  
     203  hru203                     hru         203     4.7070E-3       1.00000       0.00000  
     204  hru204                     hru         204     8.6491E-4       1.00000       0.00000  
     205  hru205                     hru         205     4.4334E-4       1.00000       0.00000  
     206  hru206                     hru         206     3.2029E-4       1.00000       0.00000  
     207  hru207                     hru         207     2.4023E-3       1.00000       0.00000  
     208  hru208                     hru         208     1.1688E-3       1.00000       0.00000  
     209  hru209                     hru         209     2.2525E-2       1.00000       0.00000  
     210  hru210                     hru         210     1.6396E-3       1.00000       0.00000  
     211  hru211                     hru         211     3.0556E-3       1.00000       0.00000  
     212  hru212                     hru         212     1.3789E-3       1.00000       0.00000  
     213  hru213                     hru         213     6.4395E-4       1.00000       0.00000  
     214  hru214                     hru         214     1.3083E-3       1.00000       0.00000  
     215  hru215                     hru         215     1.0031E-3       1.00000       0.00000  
     216  hru216                     hru         216     9.1733E-4       1.00000       0.00000  
     217  hru217                     hru         217     1.2279E-3       1.00000       0.00000  
     218  hru218                     hru         218     2.8860E-4       1.00000       0.00000  
     219  hru219                     hru         219     1.5543E-3       1.00000       0.00000  
     220  hru220                     hru         220     8.3632E-4       1.00000       0.00000  
     221  hru221                     hru         221     6.6399E-3       1.00000       0.00000  
     222  hru222                     hru         222     1.8160E-3       1.00000       0.00000  
     223  hru223                     hru         223     1.3084E-3       1.00000       0.00000  
     224  hru224                     hru         224     1.1228E-2       1.00000       0.00000  
     225  hru225                     hru         225     1.9332E-3       1.00000       0.00000  
     226  hru226                     hru         226     1.3098E-3       1.00000       0.00000  
     227  hru227                     hru         227     2.4013E-3       1.00000       0.00000  
     228  hru228                     hru         228     3.5356E-4       1.00000       0.00000  
     229  hru229                     hru         229     6.9902E-4       1.00000       0.00000  
     230  hru230                     hru         230     4.5726E-4       1.00000       0.00000  
     231  hru231                     hru         231     5.6213E-3       1.00000       0.00000  
     232  hru232                     hru         232     4.0980E-4       1.00000       0.00000  
     233  hru233                     hru         233     4.6648E-4       1.00000       0.00000  
     234  hru234                     hru         234     1.4101E-3       1.00000       0.00000  
     235  hru235                     hru         235     8.2192E-4       1.00000       0.00000  
     236  hru236                     hru         236     2.2719E-3       1.00000       0.00000  
     237  hru237                     hru         237     9.5260E-3       1.00000       0.00000  
     238  hru238                     hru         238     7.9263E-4       1.00000       0.00000  
     239  hru239                     hru         239     1.0476E-3       1.00000       0.00000  
     240  hru240                     hru         240     3.1249E-4       1.00000       0.00000  
     241  hru241                     hru         241     3.2007E-2       1.00000       0.00000  
     242  hru242                     hru         242     7.0547E-3       1.00000       0.00000  
     243  hru243                     hru         243     1.1646E-3       1.00000       0.00000  
     244  hru244                     hru         244     1.0431E-3       1.00000       0.00000  
     245  hru245                     hru         245     2.8671E-3       1.00000       0.00000  
     246  hru246                     hru         246     1.4142E-4       1.00000       0.00000  
     247  hru247                     hru         247     1.3129E-2       1.00000       0.00000  
     248  hru248                     hru         248     3.0495E-2       1.00000       0.00000  
     249  hru249                     hru         249     4.9981E-3       1.00000       0.00000  
     250  hru250                     hru         250     8.5816E-4       1.00000       0.00000  
     251  hru251                     hru         251     2.1179E-2       1.00000       0.00000  
     252  hru252                     hru         252     1.3413E-4       1.00000       0.00000  
     253  hru253                     hru         253     1.8974E-2       1.00000       0.00000  
     254  hru254                     hru         254     2.0838E-2       1.00000       0.00000  
     255  hru255                     hru         255     6.7470E-4       1.00000       0.00000  
     256  hru256                     hru         256     4.0619E-4       1.00000       0.00000  
     257  hru257                     hru         257     1.8129E-2       1.00000       0.00000  
     258  hru258                     hru         258     1.8128E-2       1.00000       0.00000  
     259  hru259                     hru         259     8.3760E-4       1.00000       0.00000  
     260  hru260                     hru         260     3.1614E-3       1.00000       0.00000  
     261  hru261                     hru         261     6.0857E-3       1.00000       0.00000  
     262  hru262                     hru         262     4.5300E-3       1.00000       0.00000  
     263  hru263                     hru         263     1.1740E-3       1.00000       0.00000  
     264  hru264                     hru         264     1.2443E-3       1.00000       0.00000  
     265  hru265                     hru         265     5.0376E-4       1.00000       0.00000  
     266  hru266                     hru         266     2.7335E-3       1.00000       0.00000  
     267  hru267                     hru         267     2.4833E-4       1.00000       0.00000  
     268  hru268                     hru         268     2.1218E-2       1.00000       0.00000  
     269  hru269                     hru         269     1.8516E-2       1.00000       0.00000  
     270  hru270                     hru         270     2.7448E-3       1.00000       0.00000  
     271  hru271                     hru         271     2.2340E-2       1.00000       0.00000  
     272  hru272                     hru         272     2.2479E-2       1.00000       0.00000  
     273  hru273                     hru         273     2.3119E-2       1.00000       0.00000  
     274  hru274                     hru         274     1.8393E-2       1.00000       0.00000  
     275  hru275                     hru         275     1.7933E-2       1.00000       0.00000  
     276  hru276                     hru         276     1.9180E-2       1.00000       0.00000  
     277  hru277                     hru         277     2.2427E-2       1.00000       0.00000  
     278  hru278                     hru         278     2.6817E-3       1.00000       0.00000  
     279  hru279                     hru         279     3.1811E-3       1.00000       0.00000  
     280  hru280                     hru         280     2.9853E-3       1.00000       0.00000  
     281  hru281                     hru         281     4.6913E-4       1.00000       0.00000  
     282  hru282                     hru         282     1.9535E-4       1.00000       0.00000  
     283  hru283                     hru         283     1.2881E-2       1.00000       0.00000  
     284  hru284                     hru         284     9.6687E-4       1.00000       0.00000  
     285  hru285                     hru         285     3.8584E-4       1.00000       0.00000  
     286  hru286                     hru         286     2.2530E-4       1.00000       0.00000  
     287  hru287                     hru         287     1.3234E-4       1.00000       0.00000  
     288  hru288                     hru         288     1.4376E-4       1.00000       0.00000  
     289  hru289                     hru         289     1.2089E-2       1.00000       0.00000  
     290  hru290                     hru         290     2.3221E-4       1.00000       0.00000  
     291  hru291                     hru         291     7.6664E-4       1.00000       0.00000  
     292  hru292                     hru         292     4.6181E-3       1.00000       0.00000  
     293  hru293                     hru         293     1.7107E-3       1.00000       0.00000  
     294  hru294                     hru         294     1.7086E-4       1.00000       0.00000  
     295  hru295                     hru         295     2.2356E-4       1.00000       0.00000  
     296  hru296                     hru         296     5.5450E-4       1.00000       0.00000  
     297  hru297                     hru         297     9.2394E-4       1.00000       0.00000  
     298  hru298                     hru         298     9.0409E-4       1.00000       0.00000  
     299  hru299                     hru         299     4.4025E-4       1.00000       0.00000  
     300  hru300                     hru         300     4.3331E-4       1.00000       0.00000  
     301  hru301                     hru         301     6.8282E-4       1.00000       0.00000  
     302  hru302                     hru         302     4.5293E-4       1.00000       0.00000  
     303  hru303                     hru         303     5.3359E-4       1.00000       0.00000  
     304  hru304                     hru         304     1.7354E-3       1.00000       0.00000  
     305  hru305                     hru         305     5.1151E-4       1.00000       0.00000  
     306  hru306                     hru         306     2.3146E-3       1.00000       0.00000  
     307  hru307                     hru         307     2.2497E-3       1.00000       0.00000  