object.cnt: written by SWAT+ editor v2.1.0 on 2026-02-13 13:24 for SWAT+ rev.2.1.4
name                   ls_area      tot_area       obj       hru      lhru       rtu       mfl       aqu       cha       res       rec      exco       dlr       can       pmp       out      lcha     aqu2d       hrd       wro  
Mini_CREATE         2862.91547    2862.91547       637       314         0       314         0         1         0         2         0         0         0         0         0         0         6         0         0         0  
