rout_unit.con: written by SWAT+ editor v2.1.0 on 2026-02-13 13:24 for SWAT+ rev.2.1.4
      id  name                gis_id          area           lat           lon          elev       rtu               wst       cst      ovfl      rule   out_tot       obj_typ    obj_id       hyd_typ          frac  
       1  rtu001                   0       2.00601      54.41465      17.30814      92.07028         1     s54426n17292e         0         0         0         2            ru        75           tot       1.00000           aqu         1           rhg       1.00000  
       2  rtu002                   0       2.77510      54.41510      17.31233      92.16045         2     s54426n17292e         0         0         0         2            ru       153           tot       1.00000           aqu         1           rhg       1.00000  
       3  rtu003                   0       0.69094      54.42764      17.31573      85.14656         3     s54426n17292e         0         0         0         2            ru       171           tot       1.00000           aqu         1           rhg       1.00000  
       4  rtu004                   0       2.04316      54.39585      17.36646      96.40642         4     s54381n17294e         0         0         0         2            ru       269           tot       1.00000           aqu         1           rhg       1.00000  
       5  rtu005                   0       3.04590      54.39618      17.34116      93.47632         5     s54381n17294e         0         0         0         2            ru       251           tot       1.00000           aqu         1           rhg       1.00000  
       6  rtu006                   0       0.42393      54.39898      17.34305      89.55171         6     s54381n17294e         0         0         0         2            ru       254           tot       1.00000           aqu         1           rhg       1.00000  
       7  rtu007                   0       0.97428      54.40001      17.34442      94.17379         7     s54381n17294e         0         0         0         2            ru       254           tot       1.00000           aqu         1           rhg       1.00000  
       8  rtu008                   0       0.72520      54.40108      17.34938      96.49565         8     s54381n17294e         0         0         0         2            ru       265           tot       1.00000           aqu         1           rhg       1.00000  
       9  rtu009                   0      49.73658      54.39705      17.31460      82.77541         9     s54381n17294e         0         0         0         2           sdc         4           tot       1.00000           aqu         1           rhg       1.00000  
      10  rtu010                   0       0.60986      54.40245      17.37573      98.80365        10     s54383n17448e         0         0         0         2            ru       269           tot       1.00000           aqu         1           rhg       1.00000  
      11  rtu011                   0       0.35523      54.40544      17.32279      82.58032        11     s54426n17292e         0         0         0         2            ru       241           tot       1.00000           aqu         1           rhg       1.00000  
      12  rtu012                   0       0.61424      54.41236      17.33452      76.79836        12     s54426n17292e         0         0         0         2            ru       253           tot       1.00000           aqu         1           rhg       1.00000  
      13  rtu013                   0       2.11889      54.41137      17.33493      79.00448        13     s54426n17292e         0         0         0         2            ru       253           tot       1.00000           aqu         1           rhg       1.00000  
      14  rtu014                   0       0.51370      54.41267      17.33669      78.67996        14     s54426n17292e         0         0         0         3            ru       253           tot       0.51977            ru       309           tot       0.48023           aqu         1           rhg       1.00000  
      15  rtu015                   0      19.41950      54.40959      17.32472      87.60089        15     s54426n17292e         0         0         0         2            ru       240           tot       1.00000           aqu         1           rhg       1.00000  
      16  rtu016                   0       2.79544      54.42017      17.32329      85.63460        16     s54426n17292e         0         0         0         2            ru       198           tot       1.00000           aqu         1           rhg       1.00000  
      17  rtu017                   0      10.41524      54.39875      17.30715      87.11920        17     s54381n17294e         0         0         0         2            ru         9           tot       1.00000           aqu         1           rhg       1.00000  
      18  rtu018                   0       0.83807      54.42057      17.31349      88.16182        18     s54426n17292e         0         0         0         2            ru       149           tot       1.00000           aqu         1           rhg       1.00000  
      19  rtu019                   0       5.66622      54.42150      17.34433      74.83410        19     s54426n17292e         0         0         0         2           sdc         5           tot       1.00000           aqu         1           rhg       1.00000  
      20  rtu020                   0       3.65913      54.42136      17.31570      87.37875        20     s54426n17292e         0         0         0         3            ru       143           tot       0.53190            ru       208           tot       0.46810           aqu         1           rhg       1.00000  
      21  rtu021                   0       0.73973      54.42733      17.30674      84.82019        21     s54426n17292e         0         0         0         2            ru       126           tot       1.00000           aqu         1           rhg       1.00000  
      22  rtu022                   0       0.80605      54.42794      17.30549      83.04398        22     s54426n17292e         0         0         0         2            ru       126           tot       1.00000           aqu         1           rhg       1.00000  
      23  rtu023                   0       2.17559      54.42928      17.33500      75.93225        23     s54426n17292e         0         0         0         2            ru        88           tot       1.00000           aqu         1           rhg       1.00000  
      24  rtu024                   0       9.03557      54.42859      17.33977      75.80659        24     s54426n17292e         0         0         0         3            ru        83           tot       0.51163            ru        88           tot       0.48837           aqu         1           rhg       1.00000  
      25  rtu025                   0       1.00081      54.43095      17.31054      84.04908        25     s54426n17292e         0         0         0         2            ru        89           tot       1.00000           aqu         1           rhg       1.00000  
      26  rtu026                   0       3.92003      54.43017      17.35332      75.80938        26     s54426n17292e         0         0         0         3            ru        90           tot       0.37808            ru       279           tot       0.62192           aqu         1           rhg       1.00000  
      27  rtu027                   0      16.11778      54.42746      17.34717      75.69833        27     s54426n17292e         0         0         0         3           sdc         5           tot       0.45799            ru        84           tot       0.54201           aqu         1           rhg       1.00000  
      28  rtu028                   0       5.29704      54.43404      17.31102      98.07313        28     s54426n17292e         0         0         0         2            ru       203           tot       1.00000           aqu         1           rhg       1.00000  
      29  rtu029                   0       0.53098      54.43687      17.35748      72.19802        29     s54426n17292e         0         0         0         2           sdc         6           tot       1.00000           aqu         1           rhg       1.00000  
      30  rtu030                   0       0.46866      54.43783      17.35290      73.36755        30     s54426n17292e         0         0         0         2            ru       100           tot       1.00000           aqu         1           rhg       1.00000  
      31  rtu031                   0       5.91237      54.43856      17.32658      78.78219        31     s54426n17292e         0         0         0         2            ru       207           tot       1.00000           aqu         1           rhg       1.00000  
      32  rtu032                   0       1.58304      54.39207      17.35162     101.70137        32     s54381n17294e         0         0         0         3            ru        40           tot       0.44833            ru       260           tot       0.55167           aqu         1           rhg       1.00000  
      33  rtu033                   0       0.39290      54.42730      17.32211      80.29075        33     s54426n17292e         0         0         0         2            ru        82           tot       1.00000           aqu         1           rhg       1.00000  
      34  rtu034                   0       0.40536      54.42631      17.31990      84.24739        34     s54426n17292e         0         0         0         2            ru        41           tot       1.00000           aqu         1           rhg       1.00000  
      35  rtu035                   0       0.69857      54.42751      17.31424      85.12325        35     s54426n17292e         0         0         0         2            ru       171           tot       1.00000           aqu         1           rhg       1.00000  
      36  rtu036                   0       0.74048      54.42850      17.32847      76.69996        36     s54426n17292e         0         0         0         3            ru        82           tot       0.45752            ru        93           tot       0.54248           aqu         1           rhg       1.00000  
      37  rtu037                   0       0.32779      54.43465      17.35572      75.30558        37     s54426n17292e         0         0         0         3            ru        92           tot       0.33824            ru       223           tot       0.66176           aqu         1           rhg       1.00000  
      38  rtu038                   0       0.47821      54.43569      17.33326      73.41567        38     s54426n17292e         0         0         0         3           sdc         1           tot       0.55901            ru       221           tot       0.44099           aqu         1           rhg       1.00000  
      39  rtu039                   0       0.74424      54.43631      17.33415      73.70868        39     s54426n17292e         0         0         0         2            ru        96           tot       1.00000           aqu         1           rhg       1.00000  
      40  rtu040                   0       0.40501      54.39105      17.35221     103.39366        40     s54381n17294e         0         0         0         3            ru        58           tot       0.50917            ru       235           tot       0.49083           aqu         1           rhg       1.00000  
      41  rtu041                   0       8.95053      54.42679      17.32550      78.37580        41     s54426n17292e         0         0         0         2            ru        82           tot       1.00000           aqu         1           rhg       1.00000  
      42  rtu042                   0       1.52955      54.43386      17.35729      75.97846        42     s54426n17292e         0         0         0         3            ru        92           tot       0.44747            ru       116           tot       0.55253           aqu         1           rhg       1.00000  
      43  rtu043                   0       0.75952      54.39024      17.34147      90.22787        43     s54381n17294e         0         0         0         2            ru       194           tot       1.00000           aqu         1           rhg       1.00000  
      44  rtu044                   0       1.19737      54.39196      17.33143      92.33090        44     s54381n17294e         0         0         0         2            ru       210           tot       1.00000           aqu         1           rhg       1.00000  
      45  rtu045                   0       0.59434      54.41047      17.37204      85.88154        45     s54426n17292e         0         0         0         2            ru        73           tot       1.00000           aqu         1           rhg       1.00000  
      46  rtu046                   0       2.78553      54.42044      17.33658      78.72074        46     s54426n17292e         0         0         0         2            ru       165           tot       1.00000           aqu         1           rhg       1.00000  
      47  rtu047                   0       5.07140      54.41840      17.34287      74.21500        47     s54426n17292e         0         0         0         2           sdc         5           tot       1.00000           aqu         1           rhg       1.00000  
      48  rtu048                   0       0.31744      54.43615      17.33780      71.61272        48     s54426n17292e         0         0         0         2           res         2           tot       1.00000           aqu         1           rhg       1.00000  
      49  rtu049                   0       0.36235      54.40140      17.31799      78.57721        49     s54381n17294e         0         0         0         2           sdc         4           tot       1.00000           aqu         1           rhg       1.00000  
      50  rtu050                   0       0.51943      54.40702      17.32675      78.00587        50     s54426n17292e         0         0         0         2            ru       241           tot       1.00000           aqu         1           rhg       1.00000  
      51  rtu051                   0       0.78599      54.40832      17.36306      87.52767        51     s54426n17292e         0         0         0         2            ru       270           tot       1.00000           aqu         1           rhg       1.00000  
      52  rtu052                   0       1.14396      54.40953      17.35921      90.91865        52     s54426n17292e         0         0         0         2            ru       268           tot       1.00000           aqu         1           rhg       1.00000  
      53  rtu053                   0       2.53775      54.41068      17.32956      77.75373        53     s54426n17292e         0         0         0         2            ru       241           tot       1.00000           aqu         1           rhg       1.00000  
      54  rtu054                   0       0.60184      54.41420      17.33184      77.12284        54     s54426n17292e         0         0         0         2            ru       241           tot       1.00000           aqu         1           rhg       1.00000  
      55  rtu055                   0       1.47187      54.38947      17.31203      94.11293        55     s54381n17294e         0         0         0         4            ru       147           tot       0.22619            ru       190           tot       0.27551            ru       204           tot       0.49830           aqu         1           rhg       1.00000  
      56  rtu056                   0       4.28018      54.38956      17.36530      92.46818        56     s54381n17294e         0         0         0         2            ru       261           tot       1.00000           aqu         1           rhg       1.00000  
      57  rtu057                   0       1.02918      54.39014      17.35156     101.52060        57     s54381n17294e         0         0         0         2            ru       235           tot       1.00000           aqu         1           rhg       1.00000  
      58  rtu058                   0       0.34496      54.39127      17.35284     102.05181        58     s54381n17294e         0         0         0         2            ru       260           tot       1.00000           aqu         1           rhg       1.00000  
      59  rtu059                   0       0.46361      54.39109      17.31794      99.82105        59     s54381n17294e         0         0         0         3            ru       125           tot       0.49100            ru       159           tot       0.50900           aqu         1           rhg       1.00000  
      60  rtu060                   0       2.03557      54.39114      17.33088      95.60330        60     s54381n17294e         0         0         0         2            ru        44           tot       1.00000           aqu         1           rhg       1.00000  
      61  rtu061                   0       0.74494      54.39423      17.31251      82.94888        61     s54381n17294e         0         0         0         2            ru       227           tot       1.00000           aqu         1           rhg       1.00000  
      62  rtu062                   0       0.59342      54.39467      17.31552      81.27071        62     s54381n17294e         0         0         0         2           sdc         4           tot       1.00000           aqu         1           rhg       1.00000  
      63  rtu063                   0       1.26113      54.39507      17.33189      92.15393        63     s54381n17294e         0         0         0         2            ru       217           tot       1.00000           aqu         1           rhg       1.00000  
      64  rtu064                   0       0.77902      54.39882      17.34711      96.30573        64     s54381n17294e         0         0         0         2            ru       254           tot       1.00000           aqu         1           rhg       1.00000  
      65  rtu065                   0       1.07365      54.40003      17.34803      95.13220        65     s54381n17294e         0         0         0         2            ru       254           tot       1.00000           aqu         1           rhg       1.00000  
      66  rtu066                   0       0.67146      54.40078      17.35044      94.26739        66     s54381n17294e         0         0         0         2            ru       265           tot       1.00000           aqu         1           rhg       1.00000  
      67  rtu067                   0       0.46332      54.40194      17.30527      90.02059        67     s54381n17294e         0         0         0         2            ru       180           tot       1.00000           aqu         1           rhg       1.00000  
      68  rtu068                   0       0.49434      54.40540      17.33190      83.43296        68     s54426n17292e         0         0         0         2            ru       253           tot       1.00000           aqu         1           rhg       1.00000  
      69  rtu069                   0       0.41811      54.40598      17.33294      82.12972        69     s54426n17292e         0         0         0         2            ru       253           tot       1.00000           aqu         1           rhg       1.00000  
      70  rtu070                   0       0.33298      54.40596      17.33106      80.89488        70     s54426n17292e         0         0         0         2            ru       253           tot       1.00000           aqu         1           rhg       1.00000  
      71  rtu071                   0       0.46000      54.40720      17.33583      82.67895        71     s54426n17292e         0         0         0         2            ru       254           tot       1.00000           aqu         1           rhg       1.00000  
      72  rtu072                   0       0.48630      54.40687      17.33317      80.85114        72     s54426n17292e         0         0         0         2            ru       252           tot       1.00000           aqu         1           rhg       1.00000  
      73  rtu073                   0       0.59449      54.41063      17.37292      86.10486        73     s54426n17292e         0         0         0         2            ru       247           tot       1.00000           aqu         1           rhg       1.00000  
      74  rtu074                   0       0.75008      54.41255      17.31269      93.30113        74     s54426n17292e         0         0         0         2            ru       153           tot       1.00000           aqu         1           rhg       1.00000  
      75  rtu075                   0       2.11382      54.41505      17.30992      91.61793        75     s54426n17292e         0         0         0         2            ru       248           tot       1.00000           aqu         1           rhg       1.00000  
      76  rtu076                   0       3.45195      54.41998      17.32814      87.37623        76     s54426n17292e         0         0         0         4            ru       124           tot       0.44534            ru       173           tot       0.33142            ru       212           tot       0.22324           aqu         1           rhg       1.00000  
      77  rtu077                   0       5.38574      54.42352      17.32320      81.27007        77     s54426n17292e         0         0         0         2            ru       172           tot       1.00000           aqu         1           rhg       1.00000  
      78  rtu078                   0       6.97859      54.42392      17.32037      83.77536        78     s54426n17292e         0         0         0         2            ru       198           tot       1.00000           aqu         1           rhg       1.00000  
      79  rtu079                   0       0.56867      54.42646      17.32711      77.82931        79     s54426n17292e         0         0         0         2            ru       166           tot       1.00000           aqu         1           rhg       1.00000  
      80  rtu080                   0       0.43539      54.42866      17.31433      83.71117        80     s54426n17292e         0         0         0         2            ru       171           tot       1.00000           aqu         1           rhg       1.00000  
      81  rtu081                   0       3.45014      54.42777      17.31743      84.92116        81     s54426n17292e         0         0         0         2            ru       137           tot       1.00000           aqu         1           rhg       1.00000  
      82  rtu082                   0      10.04280      54.42867      17.32453      77.08087        82     s54426n17292e         0         0         0         2            ru        93           tot       1.00000           aqu         1           rhg       1.00000  
      83  rtu083                   0       8.48163      54.42547      17.33906      75.44868        83     s54426n17292e         0         0         0         2            ru       289           tot       1.00000           aqu         1           rhg       1.00000  
      84  rtu084                   0       8.70487      54.42690      17.35180      76.24572        84     s54426n17292e         0         0         0         2            ru       289           tot       1.00000           aqu         1           rhg       1.00000  
      85  rtu085                   0       1.36178      54.42473      17.34671      75.36740        85     s54426n17292e         0         0         0         3           sdc         5           tot       0.52812            ru       289           tot       0.47188           aqu         1           rhg       1.00000  
      86  rtu086                   0      12.53143      54.41842      17.35132      77.15293        86     s54426n17292e         0         0         0         3            ru       289           tot       0.40897            ru       306           tot       0.59103           aqu         1           rhg       1.00000  
      87  rtu087                   0       2.51297      54.42249      17.34415      74.16381        87     s54426n17292e         0         0         0         2            ru        19           tot       1.00000           aqu         1           rhg       1.00000  
      88  rtu088                   0      19.95162      54.42766      17.33436      76.01025        88     s54426n17292e         0         0         0         2            ru       136           tot       1.00000           aqu         1           rhg       1.00000  
      89  rtu089                   0       3.10952      54.43031      17.30826      82.84582        89     s54426n17292e         0         0         0         2            ru       126           tot       1.00000           aqu         1           rhg       1.00000  
      90  rtu090                   0       2.47986      54.43109      17.35550      74.05282        90     s54426n17292e         0         0         0         2            ru       116           tot       1.00000           aqu         1           rhg       1.00000  
      91  rtu091                   0       4.27827      54.43090      17.33461      76.07810        91     s54426n17292e         0         0         0         2            ru       120           tot       1.00000           aqu         1           rhg       1.00000  
      92  rtu092                   0       0.48455      54.43419      17.35599      75.10681        92     s54426n17292e         0         0         0         2            ru       223           tot       1.00000           aqu         1           rhg       1.00000  
      93  rtu093                   0      28.96074      54.43142      17.32671      75.90621        93     s54426n17292e         0         0         0         2           sdc         1           tot       1.00000           aqu         1           rhg       1.00000  
      94  rtu094                   0       8.27483      54.43128      17.34012      76.07202        94     s54426n17292e         0         0         0         2            ru       292           tot       1.00000           aqu         1           rhg       1.00000  
      95  rtu095                   0       0.45745      54.43653      17.34847      72.21570        95     s54426n17292e         0         0         0         2           sdc         5           tot       1.00000           aqu         1           rhg       1.00000  
      96  rtu096                   0      10.63272      54.43541      17.33692      73.40531        96     s54426n17292e         0         0         0         2           sdc         1           tot       1.00000           aqu         1           rhg       1.00000  
      97  rtu097                   0       0.33932      54.43652      17.34285      72.46059        97     s54426n17292e         0         0         0         2            ru       151           tot       1.00000           aqu         1           rhg       1.00000  
      98  rtu098                   0       0.39019      54.43763      17.35664      71.59292        98     s54426n17292e         0         0         0         2           sdc         6           tot       1.00000           aqu         1           rhg       1.00000  
      99  rtu099                   0       0.52400      54.43786      17.35448      71.72311        99     s54426n17292e         0         0         0         2           sdc         6           tot       1.00000           aqu         1           rhg       1.00000  
     100  rtu100                   0       6.10207      54.43777      17.34955      71.78529       100     s54426n17292e         0         0         0         2           sdc         6           tot       1.00000           aqu         1           rhg       1.00000  
     101  rtu101                   0       2.92783      54.44094      17.30961     100.12210       101     s54426n17292e         0         0         0         2            ru       201           tot       1.00000           aqu         1           rhg       1.00000  
     102  rtu102                   0       1.27666      54.39578      17.32839      95.72209       102     s54381n17294e         0         0         0         2            ru       251           tot       1.00000           aqu         1           rhg       1.00000  
     103  rtu103                   0       1.38659      54.42300      17.32486      82.40781       103     s54426n17292e         0         0         0         2            ru       111           tot       1.00000           aqu         1           rhg       1.00000  
     104  rtu104                   0       2.54879      54.42343      17.30835      89.62623       104     s54426n17292e         0         0         0         4            ru       126           tot       0.33269            ru       144           tot       0.29001            ru       145           tot       0.37730           aqu         1           rhg       1.00000  
     105  rtu105                   0       5.11141      54.42289      17.31271      88.11373       105     s54426n17292e         0         0         0         3            ru        18           tot       0.34037            ru       169           tot       0.65963           aqu         1           rhg       1.00000  
     106  rtu106                   0      20.91879      54.39293      17.34478      95.83151       106     s54381n17294e         0         0         0         3            ru       194           tot       0.70347            ru       294           tot       0.29653           aqu         1           rhg       1.00000  