bmpuser.str: written by SWAT+ editor v2.1.0 on 2026-02-04 16:56 for SWAT+ rev.2.1.4
name                  flag       sed_eff      ptlp_eff      solp_eff      ptln_eff      soln_eff      bact_eff  description
bmpusr1                  1       0.20000       0.20000       0.20000       0.20000       0.20000       0.20000  
