topography.hyd: written by SWAT+ editor v2.1.0 on 2026-02-04 16:56 for SWAT+ rev.2.1.4
name                       slp       slp_len       lat_len      dist_cha         depos  
topohru001             0.01737      30.00000      30.00000     121.00000       0.00000  
topohru002             0.01696      30.00000      30.00000     121.00000       0.00000  
topohru003             0.03382      30.00000      30.00000     121.00000       0.00000  
topohru004             0.08161      30.00000      30.00000     121.00000       0.00000  
topohru005             0.04542      30.00000      30.00000     121.00000       0.00000  
topohru006             0.06307      30.00000      30.00000     121.00000       0.00000  
topohru007             0.02873      30.00000      30.00000     121.00000       0.00000  
topohru008             0.08510      30.00000      30.00000     121.00000       0.00000  
topohru009             0.03093      30.00000      30.00000     121.00000       0.00000  
topohru010             0.02749      30.00000      30.00000     121.00000       0.00000  
topohru011             0.02848      30.00000      30.00000     121.00000       0.00000  
topohru012             0.01146      30.00000      30.00000     121.00000       0.00000  
topohru013             0.03559      30.00000      30.00000     121.00000       0.00000  
topohru014             0.03239      30.00000      30.00000     121.00000       0.00000  
topohru015             0.04732      30.00000      30.00000     121.00000       0.00000  
topohru016             0.02372      30.00000      30.00000     121.00000       0.00000  
topohru017             0.04925      30.00000      30.00000     121.00000       0.00000  
topohru018             0.02507      30.00000      30.00000     121.00000       0.00000  
topohru019             0.02334      30.00000      30.00000     121.00000       0.00000  
topohru020             0.03367      30.00000      30.00000     121.00000       0.00000  
topohru021             0.02076      30.00000      30.00000     121.00000       0.00000  
topohru022             0.01849      30.00000      30.00000     121.00000       0.00000  
topohru023             0.01326      30.00000      30.00000     121.00000       0.00000  
topohru024             0.01070      30.00000      30.00000     121.00000       0.00000  
topohru025             0.04369      30.00000      30.00000     121.00000       0.00000  
topohru026             0.01910      30.00000      30.00000     121.00000       0.00000  
topohru027             0.02515      30.00000      30.00000     121.00000       0.00000  
topohru028             0.04693      30.00000      30.00000     121.00000       0.00000  
topohru029             0.07769      30.00000      30.00000     121.00000       0.00000  
topohru030             0.06833      30.00000      30.00000     121.00000       0.00000  
topohru031             0.05658      30.00000      30.00000     121.00000       0.00000  
topohru032             0.04884      30.00000      30.00000     121.00000       0.00000  
topohru033             0.03196      30.00000      30.00000     121.00000       0.00000  
topohru034             0.02836      30.00000      30.00000     121.00000       0.00000  
topohru035             0.04159      30.00000      30.00000     121.00000       0.00000  
topohru036             0.00908      30.00000      30.00000     121.00000       0.00000  
topohru037             0.02248      30.00000      30.00000     121.00000       0.00000  
topohru038             0.02610      30.00000      30.00000     121.00000       0.00000  
topohru039             0.04699      30.00000      30.00000     121.00000       0.00000  
topohru040             0.03347      30.00000      30.00000     121.00000       0.00000  
topohru041             0.02197      30.00000      30.00000     121.00000       0.00000  
topohru042             0.01786      30.00000      30.00000     121.00000       0.00000  
topohru043             0.04658      30.00000      30.00000     121.00000       0.00000  
topohru044             0.02526      30.00000      30.00000     121.00000       0.00000  
topohru045             0.01849      30.00000      30.00000     121.00000       0.00000  
topohru046             0.02442      30.00000      30.00000     121.00000       0.00000  
topohru047             0.02395      30.00000      30.00000     121.00000       0.00000  
topohru048             0.00659      30.00000      30.00000     121.00000       0.00000  
topohru049             0.02685      30.00000      30.00000     121.00000       0.00000  
topohru050             0.06556      30.00000      30.00000     121.00000       0.00000  
topohru051             0.01062      30.00000      30.00000     121.00000       0.00000  
topohru052             0.01203      30.00000      30.00000     121.00000       0.00000  
topohru053             0.01193      30.00000      30.00000     121.00000       0.00000  
topohru054             0.00817      30.00000      30.00000     121.00000       0.00000  
topohru055             0.06661      30.00000      30.00000     121.00000       0.00000  
topohru056             0.05239      30.00000      30.00000     121.00000       0.00000  
topohru057             0.04199      30.00000      30.00000     121.00000       0.00000  
topohru058             0.06245      30.00000      30.00000     121.00000       0.00000  
topohru059             0.02764      30.00000      30.00000     121.00000       0.00000  
topohru060             0.14112      30.00000      30.00000     121.00000       0.00000  
topohru061             0.02011      30.00000      30.00000     121.00000       0.00000  
topohru062             0.03114      30.00000      30.00000     121.00000       0.00000  
topohru063             0.01991      30.00000      30.00000     121.00000       0.00000  
topohru064             0.08449      30.00000      30.00000     121.00000       0.00000  
topohru065             0.07583      30.00000      30.00000     121.00000       0.00000  
topohru066             0.10246      30.00000      30.00000     121.00000       0.00000  
topohru067             0.06491      30.00000      30.00000     121.00000       0.00000  
topohru068             0.03924      30.00000      30.00000     121.00000       0.00000  
topohru069             0.02643      30.00000      30.00000     121.00000       0.00000  
topohru070             0.01878      30.00000      30.00000     121.00000       0.00000  
topohru071             0.01546      30.00000      30.00000     121.00000       0.00000  
topohru072             0.02952      30.00000      30.00000     121.00000       0.00000  
topohru073             0.01625      30.00000      30.00000     121.00000       0.00000  
topohru074             0.02759      30.00000      30.00000     121.00000       0.00000  
topohru075             0.02892      30.00000      30.00000     121.00000       0.00000  
topohru076             0.01416      30.00000      30.00000     121.00000       0.00000  
topohru077             0.02872      30.00000      30.00000     121.00000       0.00000  
topohru078             0.02354      30.00000      30.00000     121.00000       0.00000  
topohru079             0.01730      30.00000      30.00000     121.00000       0.00000  
topohru080             0.04818      30.00000      30.00000     121.00000       0.00000  
topohru081             0.01797      30.00000      30.00000     121.00000       0.00000  
topohru082             0.01889      30.00000      30.00000     121.00000       0.00000  
topohru083             0.01427      30.00000      30.00000     121.00000       0.00000  
topohru084             0.01526      30.00000      30.00000     121.00000       0.00000  
topohru085             0.02156      30.00000      30.00000     121.00000       0.00000  
topohru086             0.02712      30.00000      30.00000     121.00000       0.00000  
topohru087             0.01166      30.00000      30.00000     121.00000       0.00000  
topohru088             0.01716      30.00000      30.00000     121.00000       0.00000  
topohru089             0.02102      30.00000      30.00000     121.00000       0.00000  
topohru090             0.02291      30.00000      30.00000     121.00000       0.00000  
topohru091             0.01049      30.00000      30.00000     121.00000       0.00000  
topohru092             0.03928      30.00000      30.00000     121.00000       0.00000  
topohru093             0.02020      30.00000      30.00000     121.00000       0.00000  
topohru094             0.01245      30.00000      30.00000     121.00000       0.00000  
topohru095             0.06065      30.00000      30.00000     121.00000       0.00000  
topohru096             0.03031      30.00000      30.00000     121.00000       0.00000  
topohru097             0.04826      30.00000      30.00000     121.00000       0.00000  
topohru098             0.07680      30.00000      30.00000     121.00000       0.00000  
topohru099             0.04970      30.00000      30.00000     121.00000       0.00000  
topohru100             0.03400      30.00000      30.00000     121.00000       0.00000  
topohru101             0.03880      30.00000      30.00000     121.00000       0.00000  
topohru102             0.01465      30.00000      30.00000     121.00000       0.00000  
topohru103             0.02341      30.00000      30.00000     121.00000       0.00000  
topohru104             0.01175      30.00000      30.00000     121.00000       0.00000  
topohru105             0.01756      30.00000      30.00000     121.00000       0.00000  
topohru106             0.05306      30.00000      30.00000     121.00000       0.00000  
topohru107             0.01281      30.00000      30.00000     121.00000       0.00000  
topohru108             0.03929      30.00000      30.00000     121.00000       0.00000  
topohru109             0.01235      30.00000      30.00000     121.00000       0.00000  
topohru110             0.01721      30.00000      30.00000     121.00000       0.00000  
topohru111             0.02005      30.00000      30.00000     121.00000       0.00000  
topohru112             0.01190      30.00000      30.00000     121.00000       0.00000  
topohru113             0.03413      30.00000      30.00000     121.00000       0.00000  
topohru114             0.03318      30.00000      30.00000     121.00000       0.00000  
topohru115             0.02348      30.00000      30.00000     121.00000       0.00000  
topohru116             0.02646      30.00000      30.00000     121.00000       0.00000  
topohru117             0.03064      30.00000      30.00000     121.00000       0.00000  
topohru118             0.02964      30.00000      30.00000     121.00000       0.00000  
topohru119             0.05479      30.00000      30.00000     121.00000       0.00000  
topohru120             0.00663      30.00000      30.00000     121.00000       0.00000  
topohru121             0.02522      30.00000      30.00000     121.00000       0.00000  
topohru122             0.02422      30.00000      30.00000     121.00000       0.00000  
topohru123             0.01017      30.00000      30.00000     121.00000       0.00000  
topohru124             0.01873      30.00000      30.00000     121.00000       0.00000  
topohru125             0.02186      30.00000      30.00000     121.00000       0.00000  
topohru126             0.02414      30.00000      30.00000     121.00000       0.00000  
topohru127             0.02228      30.00000      30.00000     121.00000       0.00000  
topohru128             0.08149      30.00000      30.00000     121.00000       0.00000  
topohru129             0.01584      30.00000      30.00000     121.00000       0.00000  
topohru130             0.01484      30.00000      30.00000     121.00000       0.00000  
topohru131             0.02152      30.00000      30.00000     121.00000       0.00000  
topohru132             0.01416      30.00000      30.00000     121.00000       0.00000  
topohru133             0.01757      30.00000      30.00000     121.00000       0.00000  
topohru134             0.02130      30.00000      30.00000     121.00000       0.00000  
topohru135             0.02257      30.00000      30.00000     121.00000       0.00000  
topohru136             0.01241      30.00000      30.00000     121.00000       0.00000  
topohru137             0.03410      30.00000      30.00000     121.00000       0.00000  
topohru138             0.01752      30.00000      30.00000     121.00000       0.00000  
topohru139             0.01825      30.00000      30.00000     121.00000       0.00000  
topohru140             0.02005      30.00000      30.00000     121.00000       0.00000  
topohru141             0.01278      30.00000      30.00000     121.00000       0.00000  
topohru142             0.04254      30.00000      30.00000     121.00000       0.00000  
topohru143             0.02171      30.00000      30.00000     121.00000       0.00000  
topohru144             0.01574      30.00000      30.00000     121.00000       0.00000  
topohru145             0.01053      30.00000      30.00000     121.00000       0.00000  
topohru146             0.02800      30.00000      30.00000     121.00000       0.00000  
topohru147             0.03527      30.00000      30.00000     121.00000       0.00000  
topohru148             0.04987      30.00000      30.00000     121.00000       0.00000  
topohru149             0.02354      30.00000      30.00000     121.00000       0.00000  
topohru150             0.02559      30.00000      30.00000     121.00000       0.00000  
topohru151             0.03767      30.00000      30.00000     121.00000       0.00000  
topohru152             0.03058      30.00000      30.00000     121.00000       0.00000  
topohru153             0.01193      30.00000      30.00000     121.00000       0.00000  
topohru154             0.01239      30.00000      30.00000     121.00000       0.00000  
topohru155             0.02057      30.00000      30.00000     121.00000       0.00000  
topohru156             0.05923      30.00000      30.00000     121.00000       0.00000  
topohru157             0.02275      30.00000      30.00000     121.00000       0.00000  
topohru158             0.04441      30.00000      30.00000     121.00000       0.00000  
topohru159             0.04648      30.00000      30.00000     121.00000       0.00000  
topohru160             0.02479      30.00000      30.00000     121.00000       0.00000  
topohru161             0.02394      30.00000      30.00000     121.00000       0.00000  
topohru162             0.04351      30.00000      30.00000     121.00000       0.00000  
topohru163             0.01668      30.00000      30.00000     121.00000       0.00000  
topohru164             0.04589      30.00000      30.00000     121.00000       0.00000  
topohru165             0.02603      30.00000      30.00000     121.00000       0.00000  
topohru166             0.01654      30.00000      30.00000     121.00000       0.00000  
topohru167             0.02379      30.00000      30.00000     121.00000       0.00000  
topohru168             0.01521      30.00000      30.00000     121.00000       0.00000  
topohru169             0.02051      30.00000      30.00000     121.00000       0.00000  
topohru170             0.03327      30.00000      30.00000     121.00000       0.00000  
topohru171             0.03007      30.00000      30.00000     121.00000       0.00000  
topohru172             0.02291      30.00000      30.00000     121.00000       0.00000  
topohru173             0.01866      30.00000      30.00000     121.00000       0.00000  
topohru174             0.02622      30.00000      30.00000     121.00000       0.00000  
topohru175             0.02170      30.00000      30.00000     121.00000       0.00000  
topohru176             0.02728      30.00000      30.00000     121.00000       0.00000  
topohru177             0.02172      30.00000      30.00000     121.00000       0.00000  
topohru178             0.01336      30.00000      30.00000     121.00000       0.00000  
topohru179             0.02004      30.00000      30.00000     121.00000       0.00000  
topohru180             0.03035      30.00000      30.00000     121.00000       0.00000  
topohru181             0.01967      30.00000      30.00000     121.00000       0.00000  
topohru182             0.01931      30.00000      30.00000     121.00000       0.00000  
topohru183             0.01865      30.00000      30.00000     121.00000       0.00000  
topohru184             0.06311      30.00000      30.00000     121.00000       0.00000  
topohru185             0.03248      30.00000      30.00000     121.00000       0.00000  
topohru186             0.02248      30.00000      30.00000     121.00000       0.00000  
topohru187             0.01440      30.00000      30.00000     121.00000       0.00000  
topohru188             0.02062      30.00000      30.00000     121.00000       0.00000  
topohru189             0.03534      30.00000      30.00000     121.00000       0.00000  
topohru190             0.05160      30.00000      30.00000     121.00000       0.00000  
topohru191             0.04958      30.00000      30.00000     121.00000       0.00000  
topohru192             0.05732      30.00000      30.00000     121.00000       0.00000  
topohru193             0.01451      30.00000      30.00000     121.00000       0.00000  
topohru194             0.04660      30.00000      30.00000     121.00000       0.00000  
topohru195             0.01678      30.00000      30.00000     121.00000       0.00000  
topohru196             0.04436      30.00000      30.00000     121.00000       0.00000  
topohru197             0.03797      30.00000      30.00000     121.00000       0.00000  
topohru198             0.02766      30.00000      30.00000     121.00000       0.00000  
topohru199             0.01772      30.00000      30.00000     121.00000       0.00000  
topohru200             0.01590      30.00000      30.00000     121.00000       0.00000  
topohru201             0.04660      30.00000      30.00000     121.00000       0.00000  
topohru202             0.06605      30.00000      30.00000     121.00000       0.00000  
topohru203             0.05325      30.00000      30.00000     121.00000       0.00000  
topohru204             0.05454      30.00000      30.00000     121.00000       0.00000  
topohru205             0.05209      30.00000      30.00000     121.00000       0.00000  
topohru206             0.02496      30.00000      30.00000     121.00000       0.00000  
topohru207             0.02488      30.00000      30.00000     121.00000       0.00000  
topohru208             0.01833      30.00000      30.00000     121.00000       0.00000  
topohru209             0.02332      30.00000      30.00000     121.00000       0.00000  
topohru210             0.03083      30.00000      30.00000     121.00000       0.00000  
topohru211             0.01462      30.00000      30.00000     121.00000       0.00000  
topohru212             0.01954      30.00000      30.00000     121.00000       0.00000  
topohru213             0.01507      30.00000      30.00000     121.00000       0.00000  
topohru214             0.02060      30.00000      30.00000     121.00000       0.00000  
topohru215             0.01745      30.00000      30.00000     121.00000       0.00000  
topohru216             0.02769      30.00000      30.00000     121.00000       0.00000  
topohru217             0.02943      30.00000      30.00000     121.00000       0.00000  
topohru218             0.04287      30.00000      30.00000     121.00000       0.00000  
topohru219             0.01401      30.00000      30.00000     121.00000       0.00000  
topohru220             0.01369      30.00000      30.00000     121.00000       0.00000  
topohru221             0.01235      30.00000      30.00000     121.00000       0.00000  
topohru222             0.01929      30.00000      30.00000     121.00000       0.00000  
topohru223             0.02173      30.00000      30.00000     121.00000       0.00000  
topohru224             0.03407      30.00000      30.00000     121.00000       0.00000  
topohru225             0.03326      30.00000      30.00000     121.00000       0.00000  
topohru226             0.05129      30.00000      30.00000     121.00000       0.00000  
topohru227             0.03639      30.00000      30.00000     121.00000       0.00000  
topohru228             0.03117      30.00000      30.00000     121.00000       0.00000  
topohru229             0.01988      30.00000      30.00000     121.00000       0.00000  
topohru230             0.01686      30.00000      30.00000     121.00000       0.00000  
topohru231             0.03099      30.00000      30.00000     121.00000       0.00000  
topohru232             0.03051      30.00000      30.00000     121.00000       0.00000  
topohru233             0.02683      30.00000      30.00000     121.00000       0.00000  
topohru234             0.04058      30.00000      30.00000     121.00000       0.00000  
topohru235             0.05312      30.00000      30.00000     121.00000       0.00000  
topohru236             0.04132      30.00000      30.00000     121.00000       0.00000  
topohru237             0.03505      30.00000      30.00000     121.00000       0.00000  
topohru238             0.03076      30.00000      30.00000     121.00000       0.00000  
topohru239             0.02183      30.00000      30.00000     121.00000       0.00000  
topohru240             0.10108      30.00000      30.00000     121.00000       0.00000  
topohru241             0.03417      30.00000      30.00000     121.00000       0.00000  
topohru242             0.01726      30.00000      30.00000     121.00000       0.00000  
topohru243             0.01624      30.00000      30.00000     121.00000       0.00000  
topohru244             0.02205      30.00000      30.00000     121.00000       0.00000  
topohru245             0.04817      30.00000      30.00000     121.00000       0.00000  
topohru246             0.04099      30.00000      30.00000     121.00000       0.00000  
topohru247             0.04766      30.00000      30.00000     121.00000       0.00000  
topohru248             0.01590      30.00000      30.00000     121.00000       0.00000  
topohru249             0.01449      30.00000      30.00000     121.00000       0.00000  
topohru250             0.02473      30.00000      30.00000     121.00000       0.00000  
topohru251             0.04126      30.00000      30.00000     121.00000       0.00000  
topohru252             0.01515      30.00000      30.00000     121.00000       0.00000  
topohru253             0.03378      30.00000      30.00000     121.00000       0.00000  
topohru254             0.04553      30.00000      30.00000     121.00000       0.00000  
topohru255             0.02644      30.00000      30.00000     121.00000       0.00000  
topohru256             0.04592      30.00000      30.00000     121.00000       0.00000  
topohru257             0.03480      30.00000      30.00000     121.00000       0.00000  
topohru258             0.02456      30.00000      30.00000     121.00000       0.00000  
topohru259             0.04435      30.00000      30.00000     121.00000       0.00000  
topohru260             0.04095      30.00000      30.00000     121.00000       0.00000  
topohru261             0.05703      30.00000      30.00000     121.00000       0.00000  
topohru262             0.04105      30.00000      30.00000     121.00000       0.00000  
topohru263             0.05878      30.00000      30.00000     121.00000       0.00000  
topohru264             0.01602      30.00000      30.00000     121.00000       0.00000  
topohru265             0.08024      30.00000      30.00000     121.00000       0.00000  
topohru266             0.04943      30.00000      30.00000     121.00000       0.00000  
topohru267             0.02892      30.00000      30.00000     121.00000       0.00000  
topohru268             0.04468      30.00000      30.00000     121.00000       0.00000  
topohru269             0.05018      30.00000      30.00000     121.00000       0.00000  
topohru270             0.07860      30.00000      30.00000     121.00000       0.00000  
topohru271             0.03109      30.00000      30.00000     121.00000       0.00000  
topohru272             0.04152      30.00000      30.00000     121.00000       0.00000  
topohru273             0.02867      30.00000      30.00000     121.00000       0.00000  
topohru274             0.03490      30.00000      30.00000     121.00000       0.00000  
topohru275             0.02416      30.00000      30.00000     121.00000       0.00000  
topohru276             0.02489      30.00000      30.00000     121.00000       0.00000  
topohru277             0.02698      30.00000      30.00000     121.00000       0.00000  
topohru278             0.03521      30.00000      30.00000     121.00000       0.00000  
topohru279             0.02254      30.00000      30.00000     121.00000       0.00000  
topohru280             0.01900      30.00000      30.00000     121.00000       0.00000  
topohru281             0.03265      30.00000      30.00000     121.00000       0.00000  
topohru282             0.03877      30.00000      30.00000     121.00000       0.00000  
topohru283             0.03663      30.00000      30.00000     121.00000       0.00000  
topohru284             0.01309      30.00000      30.00000     121.00000       0.00000  
topohru285             0.03014      30.00000      30.00000     121.00000       0.00000  
topohru286             0.03099      30.00000      30.00000     121.00000       0.00000  
topohru287             0.04898      30.00000      30.00000     121.00000       0.00000  
topohru288             0.02701      30.00000      30.00000     121.00000       0.00000  
topohru289             0.01759      30.00000      30.00000     121.00000       0.00000  
topohru290             0.01310      30.00000      30.00000     121.00000       0.00000  
topohru291             0.02420      30.00000      30.00000     121.00000       0.00000  
topohru292             0.02624      30.00000      30.00000     121.00000       0.00000  
topohru293             0.01850      30.00000      30.00000     121.00000       0.00000  
topohru294             0.02517      30.00000      30.00000     121.00000       0.00000  
topohru295             0.08247      30.00000      30.00000     121.00000       0.00000  
topohru296             0.02087      30.00000      30.00000     121.00000       0.00000  
topohru297             0.03323      30.00000      30.00000     121.00000       0.00000  
topohru298             0.02096      30.00000      30.00000     121.00000       0.00000  
topohru299             0.02643      30.00000      30.00000     121.00000       0.00000  
topohru300             0.01605      30.00000      30.00000     121.00000       0.00000  
topohru301             0.01643      30.00000      30.00000     121.00000       0.00000  
topohru302             0.02306      30.00000      30.00000     121.00000       0.00000  
topohru303             0.02638      30.00000      30.00000     121.00000       0.00000  
topohru304             0.03928      30.00000      30.00000     121.00000       0.00000  
topohru305             0.00566      30.00000      30.00000     121.00000       0.00000  
topohru306             0.02168      30.00000      30.00000     121.00000       0.00000  
topohru307             0.01737      30.00000      30.00000     121.00000       0.00000  
topohru308             0.01729      30.00000      30.00000     121.00000       0.00000  
topohru309             0.01822      30.00000      30.00000     121.00000       0.00000  
topohru310             0.04048      30.00000      30.00000     121.00000       0.00000  
topohru311             0.02751      30.00000      30.00000     121.00000       0.00000  
topohru312             0.01677      30.00000      30.00000     121.00000       0.00000  
topohru313             0.05701      30.00000      30.00000     121.00000       0.00000  
topohru314             0.03217      30.00000      30.00000     121.00000       0.00000  
toportu001             0.01737      30.00000      30.00000     121.00000       0.00000  
toportu002             0.01696      30.00000      30.00000     121.00000       0.00000  
toportu003             0.03382      30.00000      30.00000     121.00000       0.00000  
toportu004             0.08161      30.00000      30.00000     121.00000       0.00000  
toportu005             0.04542      30.00000      30.00000     121.00000       0.00000  
toportu006             0.06307      30.00000      30.00000     121.00000       0.00000  
toportu007             0.02873      30.00000      30.00000     121.00000       0.00000  
toportu008             0.08510      30.00000      30.00000     121.00000       0.00000  
toportu009             0.03093      30.00000      30.00000     121.00000       0.00000  
toportu010             0.02749      30.00000      30.00000     121.00000       0.00000  
toportu011             0.02848      30.00000      30.00000     121.00000       0.00000  
toportu012             0.01146      30.00000      30.00000     121.00000       0.00000  
toportu013             0.03559      30.00000      30.00000     121.00000       0.00000  
toportu014             0.03239      30.00000      30.00000     121.00000       0.00000  
toportu015             0.04732      30.00000      30.00000     121.00000       0.00000  
toportu016             0.02372      30.00000      30.00000     121.00000       0.00000  
toportu017             0.04925      30.00000      30.00000     121.00000       0.00000  
toportu018             0.02507      30.00000      30.00000     121.00000       0.00000  
toportu019             0.02334      30.00000      30.00000     121.00000       0.00000  
toportu020             0.03367      30.00000      30.00000     121.00000       0.00000  
toportu021             0.02076      30.00000      30.00000     121.00000       0.00000  