rout_unit.def: written by SWAT+ editor v2.1.0 on 2026-02-04 16:56 for SWAT+ rev.2.1.4
      id              name  elem_tot  elements  
       1            rtu001         1         1  
       2            rtu002         1         2  
       3            rtu003         1         3  
       4            rtu004         1         4  
       5            rtu005         1         5  
       6            rtu006         1         6  
       7            rtu007         1         7  
       8            rtu008         1         8  
       9            rtu009         1         9  
      10            rtu010         1        10  
      11            rtu011         1        11  
      12            rtu012         1        12  
      13            rtu013         1        13  
      14            rtu014         1        14  
      15            rtu015         1        15  
      16            rtu016         1        16  
      17            rtu017         1        17  
      18            rtu018         1        18  
      19            rtu019         1        19  
      20            rtu020         1        20  
      21            rtu021         1        21  
      22            rtu022         1        22  
      23            rtu023         1        23  
      24            rtu024         1        24  
      25            rtu025         1        25  
      26            rtu026         1        26  
      27            rtu027         1        27  
      28            rtu028         1        28  
      29            rtu029         1        29  
      30            rtu030         1        30  
      31            rtu031         1        31  
      32            rtu032         1        32  
      33            rtu033         1        33  
      34            rtu034         1        34  
      35            rtu035         1        35  
      36            rtu036         1        36  
      37            rtu037         1        37  
      38            rtu038         1        38  
      39            rtu039         1        39  
      40            rtu040         1        40  
      41            rtu041         1        41  
      42            rtu042         1        42  
      43            rtu043         1        43  
      44            rtu044         1        44  
      45            rtu045         1        45  
      46            rtu046         1        46  
      47            rtu047         1        47  
      48            rtu048         1        48  
      49            rtu049         1        49  
      50            rtu050         1        50  
      51            rtu051         1        51  
      52            rtu052         1        52  
      53            rtu053         1        53  
      54            rtu054         1        54  
      55            rtu055         1        55  
      56            rtu056         1        56  
      57            rtu057         1        57  
      58            rtu058         1        58  
      59            rtu059         1        59  
      60            rtu060         1        60  
      61            rtu061         1        61  
      62            rtu062         1        62  
      63            rtu063         1        63  
      64            rtu064         1        64  
      65            rtu065         1        65  
      66            rtu066         1        66  
      67            rtu067         1        67  
      68            rtu068         1        68  
      69            rtu069         1        69  
      70            rtu070         1        70  
      71            rtu071         1        71  
      72            rtu072         1        72  
      73            rtu073         1        73  
      74            rtu074         1        74  
      75            rtu075         1        75  
      76            rtu076         1        76  
      77            rtu077         1        77  
      78            rtu078         1        78  
      79            rtu079         1        79  
      80            rtu080         1        80  
      81            rtu081         1        81  
      82            rtu082         1        82  
      83            rtu083         1        83  
      84            rtu084         1        84  
      85            rtu085         1        85  
      86            rtu086         1        86  
      87            rtu087         1        87  
      88            rtu088         1        88  
      89            rtu089         1        89  
      90            rtu090         1        90  
      91            rtu091         1        91  
      92            rtu092         1        92  
      93            rtu093         1        93  
      94            rtu094         1        94  
      95            rtu095         1        95  
      96            rtu096         1        96  
      97            rtu097         1        97  
      98            rtu098         1        98  
      99            rtu099         1        99  
     100            rtu100         1       100  
     101            rtu101         1       101  
     102            rtu102         1       102  
     103            rtu103         1       103  
     104            rtu104         1       104  
     105            rtu105         1       105  
     106            rtu106         1       106  
     107            rtu107         1       107  
     108            rtu108         1       108  
     109            rtu109         1       109  
     110            rtu110         1       110  
     111            rtu111         1       111  
     112            rtu112         1       112  
     113            rtu113         1       113  
     114            rtu114         1       114  
     115            rtu115         1       115  
     116            rtu116         1       116  
     117            rtu117         1       117  
     118            rtu118         1       118  
     119            rtu119         1       119  
     120            rtu120         1       120  
     121            rtu121         1       121  
     122            rtu122         1       122  
     123            rtu123         1       123  
     124            rtu124         1       124  
     125            rtu125         1       125  
     126            rtu126         1       126  
     127            rtu127         1       127  
     128            rtu128         1       128  
     129            rtu129         1       129  
     130            rtu130         1       130  
     131            rtu131         1       131  
     132            rtu132         1       132  
     133            rtu133         1       133  
     134            rtu134         1       134  
     135            rtu135         1       135  
     136            rtu136         1       136  
     137            rtu137         1       137  
     138            rtu138         1       138  
     139            rtu139         1       139  
     140            rtu140         1       140  
     141            rtu141         1       141  
     142            rtu142         1       142  
     143            rtu143         1       143  
     144            rtu144         1       144  
     145            rtu145         1       145  
     146            rtu146         1       146  
     147            rtu147         1       147  
     148            rtu148         1       148  
     149            rtu149         1       149  
     150            rtu150         1       150  
     151            rtu151         1       151  
     152            rtu152         1       152  
     153            rtu153         1       153  
     154            rtu154         1       154  
     155            rtu155         1       155  
     156            rtu156         1       156  
     157            rtu157         1       157  
     158            rtu158         1       158  
     159            rtu159         1       159  
     160            rtu160         1       160  
     161            rtu161         1       161  
     162            rtu162         1       162  
     163            rtu163         1       163  
     164            rtu164         1       164  
     165            rtu165         1       165  
     166            rtu166         1       166  
     167            rtu167         1       167  
     168            rtu168         1       168  
     169            rtu169         1       169  
     170            rtu170         1       170  
     171            rtu171         1       171  
     172            rtu172         1       172  
     173            rtu173         1       173  
     174            rtu174         1       174  
     175            rtu175         1       175  
     176            rtu176         1       176  
     177            rtu177         1       177  
     178            rtu178         1       178  
     179            rtu179         1       179  
     180            rtu180         1       180  
     181            rtu181         1       181  
     182            rtu182         1       182  
     183            rtu183         1       183  
     184            rtu184         1       184  
     185            rtu185         1       185  
     186            rtu186         1       186  
     187            rtu187         1       187  
     188            rtu188         1       188  
     189            rtu189         1       189  
     190            rtu190         1       190  
     191            rtu191         1       191  
     192            rtu192         1       192  
     193            rtu193         1       193  
     194            rtu194         1       194  
     195            rtu195         1       195  
     196            rtu196         1       196  
     197            rtu197         1       197  
     198            rtu198         1       198  
     199            rtu199         1       199  
     200            rtu200         1       200  
     201            rtu201         1       201  
     202            rtu202         1       202  
     203            rtu203         1       203  
     204            rtu204         1       204  
     205            rtu205         1       205  
     206            rtu206         1       206  
     207            rtu207         1       207  
     208            rtu208         1       208  
     209            rtu209         1       209  
     210            rtu210         1       210  
     211            rtu211         1       211  
     212            rtu212         1       212  
     213            rtu213         1       213  
     214            rtu214         1       214  
     215            rtu215         1       215  
     216            rtu216         1       216  
     217            rtu217         1       217  
     218            rtu218         1       218  
     219            rtu219         1       219  
     220            rtu220         1       220  
     221            rtu221         1       221  
     222            rtu222         1       222  
     223            rtu223         1       223  
     224            rtu224         1       224  
     225            rtu225         1       225  
     226            rtu226         1       226  
     227            rtu227         1       227  
     228            rtu228         1       228  
     229            rtu229         1       229  
     230            rtu230         1       230  
     231            rtu231         1       231  
     232            rtu232         1       232  
     233            rtu233         1       233  
     234            rtu234         1       234  
     235            rtu235         1       235  
     236            rtu236         1       236  
     237            rtu237         1       237  
     238            rtu238         1       238  
     239            rtu239         1       239  
     240            rtu240         1       240  
     241            rtu241         1       241  
     242            rtu242         1       242  
     243            rtu243         1       243  
     244            rtu244         1       244  
     245            rtu245         1       245  
     246            rtu246         1       246  
     247            rtu247         1       247  
     248            rtu248         1       248  
     249            rtu249         1       249  
     250            rtu250         1       250  
     251            rtu251         1       251  
     252            rtu252         1       252  
     253            rtu253         1       253  
     254            rtu254         1       254  
     255            rtu255         1       255  
     256            rtu256         1       256  
     257            rtu257         1       257  
     258            rtu258         1       258  
     259            rtu259         1       259  
     260            rtu260         1       260  
     261            rtu261         1       261  
     262            rtu262         1       262  
     263            rtu263         1       263  
     264            rtu264         1       264  
     265            rtu265         1       265  
     266            rtu266         1       266  
     267            rtu267         1       267  
     268            rtu268         1       268  
     269            rtu269         1       269  
     270            rtu270         1       270  
     271            rtu271         1       271  
     272            rtu272         1       272  
     273            rtu273         1       273  
     274            rtu274         1       274  
     275            rtu275         1       275  
     276            rtu276         1       276  
     277            rtu277         1       277  
     278            rtu278         1       278  
     279            rtu279         1       279  
     280            rtu280         1       280  
     281            rtu281         1       281  
     282            rtu282         1       282  
     283            rtu283         1       283  
     284            rtu284         1       284  
     285            rtu285         1       285  
     286            rtu286         1       286  
     287            rtu287         1       287  
     288            rtu288         1       288  
     289            rtu289         1       289  
     290            rtu290         1       290  
     291            rtu291         1       291  
     292            rtu292         1       292  
     293            rtu293         1       293  
     294            rtu294         1       294  
     295            rtu295         1       295  
     296            rtu296         1       296  
     297            rtu297         1       297  
     298            rtu298         1       298  
     299            rtu299         1       299  
     300            rtu300         1       300  
     301            rtu301         1       301  
     302            rtu302         1       302  
     303            rtu303         1       303  
     304            rtu304         1       304  
     305            rtu305         1       305  
     306            rtu306         1       306  
     307            rtu307         1       307  
     308            rtu308         1       308  
     309            rtu309         1       309  
     310            rtu310         1       310  
     311            rtu311         1       311  
     312            rtu312         1       312  
     313            rtu313         1       313  
     314            rtu314         1       314  
