sweep.ops: written by SWAT+ editor v2.1.0 on 2026-02-04 16:56 for SWAT+ rev.2.1.4
name                   swp_eff     frac_curb  description
high_eff               0.80000       0.90000  
