field.fld: written by SWAT+ editor v2.1.0 on 2026-02-04 16:56 for SWAT+ rev.2.1.4
name                       len            wd           ang  
fld001               500.00000     100.00000      30.00000  
fld002               500.00000     100.00000      30.00000  
fld003               500.00000     100.00000      30.00000  
fld004               500.00000     100.00000      30.00000  
fld005               500.00000     100.00000      30.00000  
fld006               500.00000     100.00000      30.00000  
fld007               500.00000     100.00000      30.00000  
fld008               500.00000     100.00000      30.00000  
fld009               500.00000     100.00000      30.00000  
fld010               500.00000     100.00000      30.00000  
fld011               500.00000     100.00000      30.00000  
fld012               500.00000     100.00000      30.00000  
fld013               500.00000     100.00000      30.00000  
fld014               500.00000     100.00000      30.00000  
fld015               500.00000     100.00000      30.00000  
fld016               500.00000     100.00000      30.00000  
fld017               500.00000     100.00000      30.00000  
fld018               500.00000     100.00000      30.00000  
fld019               500.00000     100.00000      30.00000  
fld020               500.00000     100.00000      30.00000  
fld021               500.00000     100.00000      30.00000  
fld022               500.00000     100.00000      30.00000  
fld023               500.00000     100.00000      30.00000  
fld024               500.00000     100.00000      30.00000  
fld025               500.00000     100.00000      30.00000  
fld026               500.00000     100.00000      30.00000  
fld027               500.00000     100.00000      30.00000  
fld028               500.00000     100.00000      30.00000  
fld029               500.00000     100.00000      30.00000  
fld030               500.00000     100.00000      30.00000  
fld031               500.00000     100.00000      30.00000  
fld032               500.00000     100.00000      30.00000  
fld033               500.00000     100.00000      30.00000  
fld034               500.00000     100.00000      30.00000  
fld035               500.00000     100.00000      30.00000  
fld036               500.00000     100.00000      30.00000  
fld037               500.00000     100.00000      30.00000  
fld038               500.00000     100.00000      30.00000  
fld039               500.00000     100.00000      30.00000  
fld040               500.00000     100.00000      30.00000  
fld041               500.00000     100.00000      30.00000  
fld042               500.00000     100.00000      30.00000  
fld043               500.00000     100.00000      30.00000  
fld044               500.00000     100.00000      30.00000  
fld045               500.00000     100.00000      30.00000  
fld046               500.00000     100.00000      30.00000  
fld047               500.00000     100.00000      30.00000  
fld048               500.00000     100.00000      30.00000  
fld049               500.00000     100.00000      30.00000  
fld050               500.00000     100.00000      30.00000  
fld051               500.00000     100.00000      30.00000  
fld052               500.00000     100.00000      30.00000  
fld053               500.00000     100.00000      30.00000  
fld054               500.00000     100.00000      30.00000  
fld055               500.00000     100.00000      30.00000  
fld056               500.00000     100.00000      30.00000  
fld057               500.00000     100.00000      30.00000  
fld058               500.00000     100.00000      30.00000  
fld059               500.00000     100.00000      30.00000  
fld060               500.00000     100.00000      30.00000  
fld061               500.00000     100.00000      30.00000  
fld062               500.00000     100.00000      30.00000  
fld063               500.00000     100.00000      30.00000  
fld064               500.00000     100.00000      30.00000  
fld065               500.00000     100.00000      30.00000  
fld066               500.00000     100.00000      30.00000  
fld067               500.00000     100.00000      30.00000  
fld068               500.00000     100.00000      30.00000  
fld069               500.00000     100.00000      30.00000  
fld070               500.00000     100.00000      30.00000  
fld071               500.00000     100.00000      30.00000  
fld072               500.00000     100.00000      30.00000  
fld073               500.00000     100.00000      30.00000  
fld074               500.00000     100.00000      30.00000  
fld075               500.00000     100.00000      30.00000  
fld076               500.00000     100.00000      30.00000  
fld077               500.00000     100.00000      30.00000  
fld078               500.00000     100.00000      30.00000  
fld079               500.00000     100.00000      30.00000  
fld080               500.00000     100.00000      30.00000  
fld081               500.00000     100.00000      30.00000  
fld082               500.00000     100.00000      30.00000  
fld083               500.00000     100.00000      30.00000  
fld084               500.00000     100.00000      30.00000  
fld085               500.00000     100.00000      30.00000  
fld086               500.00000     100.00000      30.00000  
fld087               500.00000     100.00000      30.00000  
fld088               500.00000     100.00000      30.00000  
fld089               500.00000     100.00000      30.00000  
fld090               500.00000     100.00000      30.00000  
fld091               500.00000     100.00000      30.00000  
fld092               500.00000     100.00000      30.00000  
fld093               500.00000     100.00000      30.00000  
fld094               500.00000     100.00000      30.00000  
fld095               500.00000     100.00000      30.00000  
fld096               500.00000     100.00000      30.00000  
fld097               500.00000     100.00000      30.00000  
fld098               500.00000     100.00000      30.00000  
fld099               500.00000     100.00000      30.00000  
fld100               500.00000     100.00000      30.00000  
fld101               500.00000     100.00000      30.00000  
fld102               500.00000     100.00000      30.00000  
fld103               500.00000     100.00000      30.00000  
fld104               500.00000     100.00000      30.00000  
fld105               500.00000     100.00000      30.00000  
fld106               500.00000     100.00000      30.00000  
fld107               500.00000     100.00000      30.00000  
fld108               500.00000     100.00000      30.00000  
fld109               500.00000     100.00000      30.00000  
fld110               500.00000     100.00000      30.00000  
fld111               500.00000     100.00000      30.00000  
fld112               500.00000     100.00000      30.00000  
fld113               500.00000     100.00000      30.00000  
fld114               500.00000     100.00000      30.00000  
fld115               500.00000     100.00000      30.00000  
fld116               500.00000     100.00000      30.00000  
fld117               500.00000     100.00000      30.00000  
fld118               500.00000     100.00000      30.00000  
fld119               500.00000     100.00000      30.00000  
fld120               500.00000     100.00000      30.00000  
fld121               500.00000     100.00000      30.00000  
fld122               500.00000     100.00000      30.00000  
fld123               500.00000     100.00000      30.00000  
fld124               500.00000     100.00000      30.00000  
fld125               500.00000     100.00000      30.00000  
fld126               500.00000     100.00000      30.00000  
fld127               500.00000     100.00000      30.00000  
fld128               500.00000     100.00000      30.00000  
fld129               500.00000     100.00000      30.00000  
fld130               500.00000     100.00000      30.00000  
fld131               500.00000     100.00000      30.00000  
fld132               500.00000     100.00000      30.00000  
fld133               500.00000     100.00000      30.00000  
fld134               500.00000     100.00000      30.00000  
fld135               500.00000     100.00000      30.00000  
fld136               500.00000     100.00000      30.00000  
fld137               500.00000     100.00000      30.00000  
fld138               500.00000     100.00000      30.00000  
fld139               500.00000     100.00000      30.00000  
fld140               500.00000     100.00000      30.00000  
fld141               500.00000     100.00000      30.00000  
fld142               500.00000     100.00000      30.00000  
fld143               500.00000     100.00000      30.00000  
fld144               500.00000     100.00000      30.00000  
fld145               500.00000     100.00000      30.00000  
fld146               500.00000     100.00000      30.00000  
fld147               500.00000     100.00000      30.00000  
fld148               500.00000     100.00000      30.00000  
fld149               500.00000     100.00000      30.00000  
fld150               500.00000     100.00000      30.00000  
fld151               500.00000     100.00000      30.00000  
fld152               500.00000     100.00000      30.00000  
fld153               500.00000     100.00000      30.00000  
fld154               500.00000     100.00000      30.00000  
fld155               500.00000     100.00000      30.00000  
fld156               500.00000     100.00000      30.00000  
fld157               500.00000     100.00000      30.00000  
fld158               500.00000     100.00000      30.00000  
fld159               500.00000     100.00000      30.00000  
fld160               500.00000     100.00000      30.00000  
fld161               500.00000     100.00000      30.00000  
fld162               500.00000     100.00000      30.00000  
fld163               500.00000     100.00000      30.00000  
fld164               500.00000     100.00000      30.00000  
fld165               500.00000     100.00000      30.00000  
fld166               500.00000     100.00000      30.00000  
fld167               500.00000     100.00000      30.00000  
fld168               500.00000     100.00000      30.00000  
fld169               500.00000     100.00000      30.00000  
fld170               500.00000     100.00000      30.00000  
fld171               500.00000     100.00000      30.00000  
fld172               500.00000     100.00000      30.00000  
fld173               500.00000     100.00000      30.00000  
fld174               500.00000     100.00000      30.00000  
fld175               500.00000     100.00000      30.00000  
fld176               500.00000     100.00000      30.00000  
fld177               500.00000     100.00000      30.00000  
fld178               500.00000     100.00000      30.00000  
fld179               500.00000     100.00000      30.00000  
fld180               500.00000     100.00000      30.00000  
fld181               500.00000     100.00000      30.00000  
fld182               500.00000     100.00000      30.00000  
fld183               500.00000     100.00000      30.00000  
fld184               500.00000     100.00000      30.00000  
fld185               500.00000     100.00000      30.00000  
fld186               500.00000     100.00000      30.00000  
fld187               500.00000     100.00000      30.00000  
fld188               500.00000     100.00000      30.00000  
fld189               500.00000     100.00000      30.00000  
fld190               500.00000     100.00000      30.00000  
fld191               500.00000     100.00000      30.00000  
fld192               500.00000     100.00000      30.00000  
fld193               500.00000     100.00000      30.00000  
fld194               500.00000     100.00000      30.00000  
fld195               500.00000     100.00000      30.00000  
fld196               500.00000     100.00000      30.00000  
fld197               500.00000     100.00000      30.00000  
fld198               500.00000     100.00000      30.00000  
fld199               500.00000     100.00000      30.00000  
fld200               500.00000     100.00000      30.00000  
fld201               500.00000     100.00000      30.00000  
fld202               500.00000     100.00000      30.00000  
fld203               500.00000     100.00000      30.00000  
fld204               500.00000     100.00000      30.00000  
fld205               500.00000     100.00000      30.00000  
fld206               500.00000     100.00000      30.00000  
fld207               500.00000     100.00000      30.00000  
fld208               500.00000     100.00000      30.00000  
fld209               500.00000     100.00000      30.00000  
fld210               500.00000     100.00000      30.00000  
fld211               500.00000     100.00000      30.00000  
fld212               500.00000     100.00000      30.00000  
fld213               500.00000     100.00000      30.00000  
fld214               500.00000     100.00000      30.00000  
fld215               500.00000     100.00000      30.00000  
fld216               500.00000     100.00000      30.00000  
fld217               500.00000     100.00000      30.00000  
fld218               500.00000     100.00000      30.00000  
fld219               500.00000     100.00000      30.00000  
fld220               500.00000     100.00000      30.00000  
fld221               500.00000     100.00000      30.00000  
fld222               500.00000     100.00000      30.00000  
fld223               500.00000     100.00000      30.00000  
fld224               500.00000     100.00000      30.00000  
fld225               500.00000     100.00000      30.00000  
fld226               500.00000     100.00000      30.00000  
fld227               500.00000     100.00000      30.00000  
fld228               500.00000     100.00000      30.00000  
fld229               500.00000     100.00000      30.00000  
fld230               500.00000     100.00000      30.00000  
fld231               500.00000     100.00000      30.00000  
fld232               500.00000     100.00000      30.00000  
fld233               500.00000     100.00000      30.00000  
fld234               500.00000     100.00000      30.00000  
fld235               500.00000     100.00000      30.00000  
fld236               500.00000     100.00000      30.00000  
fld237               500.00000     100.00000      30.00000  
fld238               500.00000     100.00000      30.00000  
fld239               500.00000     100.00000      30.00000  
fld240               500.00000     100.00000      30.00000  
fld241               500.00000     100.00000      30.00000  
fld242               500.00000     100.00000      30.00000  
fld243               500.00000     100.00000      30.00000  
fld244               500.00000     100.00000      30.00000  
fld245               500.00000     100.00000      30.00000  
fld246               500.00000     100.00000      30.00000  
fld247               500.00000     100.00000      30.00000  
fld248               500.00000     100.00000      30.00000  
fld249               500.00000     100.00000      30.00000  
fld250               500.00000     100.00000      30.00000  
fld251               500.00000     100.00000      30.00000  
fld252               500.00000     100.00000      30.00000  
fld253               500.00000     100.00000      30.00000  
fld254               500.00000     100.00000      30.00000  
fld255               500.00000     100.00000      30.00000  
fld256               500.00000     100.00000      30.00000  
fld257               500.00000     100.00000      30.00000  
fld258               500.00000     100.00000      30.00000  
fld259               500.00000     100.00000      30.00000  
fld260               500.00000     100.00000      30.00000  
fld261               500.00000     100.00000      30.00000  
fld262               500.00000     100.00000      30.00000  
fld263               500.00000     100.00000      30.00000  
fld264               500.00000     100.00000      30.00000  
fld265               500.00000     100.00000      30.00000  
fld266               500.00000     100.00000      30.00000  
fld267               500.00000     100.00000      30.00000  
fld268               500.00000     100.00000      30.00000  
fld269               500.00000     100.00000      30.00000  
fld270               500.00000     100.00000      30.00000  
fld271               500.00000     100.00000      30.00000  
fld272               500.00000     100.00000      30.00000  
fld273               500.00000     100.00000      30.00000  
fld274               500.00000     100.00000      30.00000  
fld275               500.00000     100.00000      30.00000  
fld276               500.00000     100.00000      30.00000  
fld277               500.00000     100.00000      30.00000  
fld278               500.00000     100.00000      30.00000  
fld279               500.00000     100.00000      30.00000  
fld280               500.00000     100.00000      30.00000  
fld281               500.00000     100.00000      30.00000  
fld282               500.00000     100.00000      30.00000  
fld283               500.00000     100.00000      30.00000  
fld284               500.00000     100.00000      30.00000  
fld285               500.00000     100.00000      30.00000  
fld286               500.00000     100.00000      30.00000  
fld287               500.00000     100.00000      30.00000  
fld288               500.00000     100.00000      30.00000  
fld289               500.00000     100.00000      30.00000  
fld290               500.00000     100.00000      30.00000  
fld291               500.00000     100.00000      30.00000  
fld292               500.00000     100.00000      30.00000  
fld293               500.00000     100.00000      30.00000  
fld294               500.00000     100.00000      30.00000  
fld295               500.00000     100.00000      30.00000  
fld296               500.00000     100.00000      30.00000  
fld297               500.00000     100.00000      30.00000  
fld298               500.00000     100.00000      30.00000  
fld299               500.00000     100.00000      30.00000  
fld300               500.00000     100.00000      30.00000  
fld301               500.00000     100.00000      30.00000  
fld302               500.00000     100.00000      30.00000  
fld303               500.00000     100.00000      30.00000  
fld304               500.00000     100.00000      30.00000  
fld305               500.00000     100.00000      30.00000  
fld306               500.00000     100.00000      30.00000  
fld307               500.00000     100.00000      30.00000  
fld308               500.00000     100.00000      30.00000  
fld309               500.00000     100.00000      30.00000  
fld310               500.00000     100.00000      30.00000  
fld311               500.00000     100.00000      30.00000  
fld312               500.00000     100.00000      30.00000  
fld313               500.00000     100.00000      30.00000  
fld314               500.00000     100.00000      30.00000  
