soils.sol: written by SWAT+ editor v2.1.0 on 2026-02-04 16:56 for SWAT+ rev.2.1.4
name                            nly           hyd_grp        dp_tot    anion_excl      perc_crk  texture                              dp            bd           awc        soil_k        carbon          clay          silt          sand          rock           alb        usle_k            ec         caco3            ph  
pl                                3                 A    1000.00000       0.50000       0.50000  pl-pl-pl                   
                                                                                                                               200.00000       1.35000       0.19000     100.00000       2.00000      22.00000      30.00000      48.00000       0.00000       0.16000       0.17000       0.00000       0.00000       0.00000  
                                                                                                                               750.00000       1.50000       0.19000      90.00000       0.80000      30.00000      10.00000      40.00000      10.00000       0.16000       0.15000       0.00000       0.00000       0.00000  
                                                                                                                              1500.00000       1.51000       0.15000      80.00000       0.20000      30.00000      15.00000      35.00000      20.00000       0.16000       0.15000       0.00000       0.00000       0.00000  
ps_pl                             3                 A    1000.00000       0.50000       0.50000  ps-pl-pl                   
                                                                                                                               250.00000       1.46000       0.13000      50.00000       1.04000       5.00000       6.00000      89.00000       0.00000       0.22000       0.11000       0.00000       0.00000       0.00000  
                                                                                                                               750.00000       1.56000       0.11000      90.00000       0.89000       2.00000       4.00000      94.00000       0.00000       0.24000       0.08000       0.00000       0.00000       0.00000  
                                                                                                                              1500.00000       1.62000       0.15000      80.00000       0.69000       2.00000       4.00000      94.00000       0.00000       0.24000       0.08000       0.00000       0.00000       0.00000  
ps                                3                 B    1000.00000       0.50000       0.50000  ps-ps-ps                   
                                                                                                                               250.00000       1.46000       0.13000      50.00000       1.04000       5.00000       6.00000      89.00000       0.00000       0.22000       0.11000       0.00000       0.00000       0.00000  
                                                                                                                               750.00000       1.55000       0.11000      50.00000       0.29000       5.00000       6.00000      89.00000       0.00000       0.22000       0.10000       0.00000       0.00000       0.00000  
                                                                                                                              1500.00000       1.63000       0.09000      30.00000       0.06000       5.00000       6.00000      89.00000       0.00000       0.22000       0.10000       0.00000       0.00000       0.00000  
pgl__gl                           3                 B    1000.00000       0.50000       0.50000  pgl-pgl-gl                 
                                                                                                                               250.00000       1.54000       0.12000      20.00000       1.45000       7.00000       9.00000      84.00000       0.00000       0.20000       0.16000       0.00000       0.00000       0.00000  
                                                                                                                               750.00000       1.60000       0.10000      18.00000       0.52000       7.00000       9.00000      84.00000       0.00000       0.20000       0.13000       0.00000       0.00000       0.00000  
                                                                                                                              1500.00000       1.70000       0.15000       2.50000       0.12000      14.00000      16.00000      70.00000       0.00000       0.16000       0.17000       0.00000       0.00000       0.00000  
ps__pl                            3                 A    1000.00000       0.50000       0.50000  ps-ps-pl                   
                                                                                                                               250.00000       1.46000       0.12000      50.00000       1.04000       5.00000       6.00000      89.00000       0.00000       0.22000       0.11000       0.00000       0.00000       0.00000  
                                                                                                                               750.00000       1.55000       0.11000      50.00000       0.69000       5.00000       6.00000      89.00000       0.00000       0.22000       0.10000       0.00000       0.00000       0.00000  
                                                                                                                              1500.00000       1.61000       0.15000      85.00000       0.39000       2.00000       4.00000      94.00000       0.00000       0.24000       0.08000       0.00000       0.00000       0.00000  
gl                                3                 C    1000.00000       0.50000       0.50000  gl-gl-gl                   
                                                                                                                               250.00000       1.51000       0.15000       2.52000       0.70000      11.20000      26.90000      67.80000       0.00000       0.16000       0.15000       0.00000       0.00000       0.00000  
                                                                                                                               750.00000       1.56000       0.13000       2.42000       0.60000      11.20000      26.90000      67.80000       0.00000       0.16000       0.15000       0.00000       0.00000       0.00000  
                                                                                                                              1500.00000       1.62000       0.11000       2.30000       0.40000      11.20000      26.90000      67.80000       0.00000       0.16000       0.15000       0.00000       0.00000       0.00000  
pgl                               3                 B    1000.00000       0.50000       0.50000  pgl-pgl-pgl                
                                                                                                                               250.00000       1.50000       0.13000      20.00000       1.45000       7.00000       9.00000      84.00000       0.00000       0.20000       0.16000       0.00000       0.00000       0.00000  
                                                                                                                               750.00000       1.65000       0.13000      40.00000       0.52000       7.00000       9.00000      84.00000       0.00000       0.20000       0.13000       0.00000       0.00000       0.00000  
                                                                                                                              1500.00000       1.65000       0.13000      40.00000       0.52000       7.00000       9.00000      84.00000       0.00000       0.20000       0.13000       0.00000       0.00000       0.00000  
M_pl                              3                 A    1000.00000       0.50000       0.50000  M-pl-pl                    
                                                                                                                               250.00000       0.70000       0.30000     252.00000      17.40000       5.00000       6.00000      89.00000       0.00000       0.22000       0.10000       0.00000       0.00000       0.00000  
                                                                                                                               750.00000       1.50000       0.19000      90.00000       0.80000      30.00000      10.00000      40.00000      10.00000       0.16000       0.15000       0.00000       0.00000       0.00000  
                                                                                                                              1500.00000       1.51000       0.15000      80.00000       0.20000      30.00000      15.00000      35.00000      20.00000       0.16000       0.15000       0.00000       0.00000       0.00000  
pgm_gl                            3                 C    1000.00000       0.50000       0.50000  pgm-gl-gl                  
                                                                                                                               250.00000       1.50000       0.11000       5.00000       1.45000       9.00000      13.00000      78.00000       0.00000       0.20000       0.17000       0.00000       0.00000       0.00000  
                                                                                                                               750.00000       1.56000       0.13000       4.50000       0.70000      11.20000      26.90000      67.80000       0.00000       0.16000       0.15000       0.00000       0.00000       0.00000  
                                                                                                                              1500.00000       1.62000       0.11000       2.30000       0.30000      11.20000      26.90000      67.80000       0.00000       0.22000       0.10000       0.00000       0.00000       0.00000  
pgm__gl                           3                 C    1000.00000       0.50000       0.50000  pgm-pgm-gl                 
                                                                                                                               250.00000       1.50000       0.12000       5.00000       1.45000       9.00000      13.00000      78.00000       0.00000       0.20000       0.17000       0.00000       0.00000       0.00000  
                                                                                                                               750.00000       1.57000       0.11000       4.50000       0.70000       9.00000      13.00000      78.00000       0.00000       0.16000       0.15000       0.00000       0.00000       0.00000  
                                                                                                                              1500.00000       1.62000       0.11000       2.40000       0.40000      11.20000      26.90000      67.80000       0.00000       0.16000       0.15000       0.00000       0.00000       0.00000  
pgl__pl                           3                 B    1000.00000       0.50000       0.50000  pgl-pgl-pl                 
                                                                                                                               250.00000       1.54000       0.12000      20.00000       1.45000       7.00000       9.00000      84.00000       0.00000       0.20000       0.16000       0.00000       0.00000       0.00000  
                                                                                                                               750.00000       1.60000       0.10000      18.00000       0.52000       7.00000       9.00000      84.00000       0.00000       0.20000       0.16000       0.00000       0.00000       0.00000  
                                                                                                                              1500.00000       1.73000       0.09000      80.00000       0.06000       2.00000       4.00000      94.00000       0.00000       0.24000       0.08000       0.00000       0.00000       0.00000  
