hru.con: written by SWAT+ editor v2.1.0 on 2026-02-13 13:24 for SWAT+ rev.2.1.4
      id  name                gis_id          area           lat           lon          elev       hru               wst       cst      ovfl      rule   out_tot  
       1  hru001                   0       2.00601      54.41465      17.30814      92.07028         1     s54426n17292e         0         0         0         0  
       2  hru002                   0       2.77510      54.41510      17.31233      92.16045         2     s54426n17292e         0         0         0         0  
       3  hru003                   0       0.69094      54.42764      17.31573      85.14656         3     s54426n17292e         0         0         0         0  
       4  hru004                   0       2.04316      54.39585      17.36646      96.40642         4     s54381n17294e         0         0         0         0  
       5  hru005                   0       3.04590      54.39618      17.34116      93.47632         5     s54381n17294e         0         0         0         0  
       6  hru006                   0       0.42393      54.39898      17.34305      89.55171         6     s54381n17294e         0         0         0         0  
       7  hru007                   0       0.97428      54.40001      17.34442      94.17379         7     s54381n17294e         0         0         0         0  
       8  hru008                   0       0.72520      54.40108      17.34938      96.49565         8     s54381n17294e         0         0         0         0  
       9  hru009                   0      49.73658      54.39705      17.31460      82.77541         9     s54381n17294e         0         0         0         0  
      10  hru010                   0       0.60986      54.40245      17.37573      98.80365        10     s54383n17448e         0         0         0         0  
      11  hru011                   0       0.35523      54.40544      17.32279      82.58032        11     s54426n17292e         0         0         0         0  
      12  hru012                   0       0.61424      54.41236      17.33452      76.79836        12     s54426n17292e         0         0         0         0  
      13  hru013                   0       2.11889      54.41137      17.33493      79.00448        13     s54426n17292e         0         0         0         0  
      14  hru014                   0       0.51370      54.41267      17.33669      78.67996        14     s54426n17292e         0         0         0         0  
      15  hru015                   0      19.41950      54.40959      17.32472      87.60089        15     s54426n17292e         0         0         0         0  
      16  hru016                   0       2.79544      54.42017      17.32329      85.63460        16     s54426n17292e         0         0         0         0  
      17  hru017                   0      10.41524      54.39875      17.30715      87.11920        17     s54381n17294e         0         0         0         0  
      18  hru018                   0       0.83807      54.42057      17.31349      88.16182        18     s54426n17292e         0         0         0         0  
      19  hru019                   0       5.66622      54.42150      17.34433      74.83410        19     s54426n17292e         0         0         0         0  
      20  hru020                   0       3.65913      54.42136      17.31570      87.37875        20     s54426n17292e         0         0         0         0  
      21  hru021                   0       0.73973      54.42733      17.30674      84.82019        21     s54426n17292e         0         0         0         0  
      22  hru022                   0       0.80605      54.42794      17.30549      83.04398        22     s54426n17292e         0         0         0         0  
      23  hru023                   0       2.17559      54.42928      17.33500      75.93225        23     s54426n17292e         0         0         0         0  
      24  hru024                   0       9.03557      54.42859      17.33977      75.80659        24     s54426n17292e         0         0         0         0  
      25  hru025                   0       1.00081      54.43095      17.31054      84.04908        25     s54426n17292e         0         0         0         0  
      26  hru026                   0       3.92003      54.43017      17.35332      75.80938        26     s54426n17292e         0         0         0         0  
      27  hru027                   0      16.11778      54.42746      17.34717      75.69833        27     s54426n17292e         0         0         0         0  
      28  hru028                   0       5.29704      54.43404      17.31102      98.07313        28     s54426n17292e         0         0         0         0  
      29  hru029                   0       0.53098      54.43687      17.35748      72.19802        29     s54426n17292e         0         0         0         0  
      30  hru030                   0       0.46866      54.43783      17.35290      73.36755        30     s54426n17292e         0         0         0         0  
      31  hru031                   0       5.91237      54.43856      17.32658      78.78219        31     s54426n17292e         0         0         0         0  
      32  hru032                   0       1.58304      54.39207      17.35162     101.70137        32     s54381n17294e         0         0         0         0  
      33  hru033                   0       0.39290      54.42730      17.32211      80.29075        33     s54426n17292e         0         0         0         0  
      34  hru034                   0       0.40536      54.42631      17.31990      84.24739        34     s54426n17292e         0         0         0         0  
      35  hru035                   0       0.69857      54.42751      17.31424      85.12325        35     s54426n17292e         0         0         0         0  
      36  hru036                   0       0.74048      54.42850      17.32847      76.69996        36     s54426n17292e         0         0         0         0  
      37  hru037                   0       0.32779      54.43465      17.35572      75.30558        37     s54426n17292e         0         0         0         0  
      38  hru038                   0       0.47821      54.43569      17.33326      73.41567        38     s54426n17292e         0         0         0         0  
      39  hru039                   0       0.74424      54.43631      17.33415      73.70868        39     s54426n17292e         0         0         0         0  
      40  hru040                   0       0.40501      54.39105      17.35221     103.39366        40     s54381n17294e         0         0         0         0  
      41  hru041                   0       8.95053      54.42679      17.32550      78.37580        41     s54426n17292e         0         0         0         0  
      42  hru042                   0       1.52955      54.43386      17.35729      75.97846        42     s54426n17292e         0         0         0         0  
      43  hru043                   0       0.75952      54.39024      17.34147      90.22787        43     s54381n17294e         0         0         0         0  
      44  hru044                   0       1.19737      54.39196      17.33143      92.33090        44     s54381n17294e         0         0         0         0  
      45  hru045                   0       0.59434      54.41047      17.37204      85.88154        45     s54426n17292e         0         0         0         0  
      46  hru046                   0       2.78553      54.42044      17.33658      78.72074        46     s54426n17292e         0         0         0         0  
      47  hru047                   0       5.07140      54.41840      17.34287      74.21500        47     s54426n17292e         0         0         0         0  
      48  hru048                   0       0.31744      54.43615      17.33780      71.61272        48     s54426n17292e         0         0         0         0  
      49  hru049                   0       0.36235      54.40140      17.31799      78.57721        49     s54381n17294e         0         0         0         0  
      50  hru050                   0       0.51943      54.40702      17.32675      78.00587        50     s54426n17292e         0         0         0         0  
      51  hru051                   0       0.78599      54.40832      17.36306      87.52767        51     s54426n17292e         0         0         0         0  
      52  hru052                   0       1.14396      54.40953      17.35921      90.91865        52     s54426n17292e         0         0         0         0  
      53  hru053                   0       2.53775      54.41068      17.32956      77.75373        53     s54426n17292e         0         0         0         0  
      54  hru054                   0       0.60184      54.41420      17.33184      77.12284        54     s54426n17292e         0         0         0         0  
      55  hru055                   0       1.47187      54.38947      17.31203      94.11293        55     s54381n17294e         0         0         0         0  
      56  hru056                   0       4.28018      54.38956      17.36530      92.46818        56     s54381n17294e         0         0         0         0  
      57  hru057                   0       1.02918      54.39014      17.35156     101.52060        57     s54381n17294e         0         0         0         0  
      58  hru058                   0       0.34496      54.39127      17.35284     102.05181        58     s54381n17294e         0         0         0         0  
      59  hru059                   0       0.46361      54.39109      17.31794      99.82105        59     s54381n17294e         0         0         0         0  
      60  hru060                   0       2.03557      54.39114      17.33088      95.60330        60     s54381n17294e         0         0         0         0  
      61  hru061                   0       0.74494      54.39423      17.31251      82.94888        61     s54381n17294e         0         0         0         0  
      62  hru062                   0       0.59342      54.39467      17.31552      81.27071        62     s54381n17294e         0         0         0         0  
      63  hru063                   0       1.26113      54.39507      17.33189      92.15393        63     s54381n17294e         0         0         0         0  
      64  hru064                   0       0.77902      54.39882      17.34711      96.30573        64     s54381n17294e         0         0         0         0  
      65  hru065                   0       1.07365      54.40003      17.34803      95.13220        65     s54381n17294e         0         0         0         0  
      66  hru066                   0       0.67146      54.40078      17.35044      94.26739        66     s54381n17294e         0         0         0         0  
      67  hru067                   0       0.46332      54.40194      17.30527      90.02059        67     s54381n17294e         0         0         0         0  
      68  hru068                   0       0.49434      54.40540      17.33190      83.43296        68     s54426n17292e         0         0         0         0  
      69  hru069                   0       0.41811      54.40598      17.33294      82.12972        69     s54426n17292e         0         0         0         0  
      70  hru070                   0       0.33298      54.40596      17.33106      80.89488        70     s54426n17292e         0         0         0         0  
      71  hru071                   0       0.46000      54.40720      17.33583      82.67895        71     s54426n17292e         0         0         0         0  
      72  hru072                   0       0.48630      54.40687      17.33317      80.85114        72     s54426n17292e         0         0         0         0  
      73  hru073                   0       0.59449      54.41063      17.37292      86.10486        73     s54426n17292e         0         0         0         0  
      74  hru074                   0       0.75008      54.41255      17.31269      93.30113        74     s54426n17292e         0         0         0         0  
      75  hru075                   0       2.11382      54.41505      17.30992      91.61793        75     s54426n17292e         0         0         0         0  
      76  hru076                   0       3.45195      54.41998      17.32814      87.37623        76     s54426n17292e         0         0         0         0  
      77  hru077                   0       5.38574      54.42352      17.32320      81.27007        77     s54426n17292e         0         0         0         0  
      78  hru078                   0       6.97859      54.42392      17.32037      83.77536        78     s54426n17292e         0         0         0         0  
      79  hru079                   0       0.56867      54.42646      17.32711      77.82931        79     s54426n17292e         0         0         0         0  
      80  hru080                   0       0.43539      54.42866      17.31433      83.71117        80     s54426n17292e         0         0         0         0  
      81  hru081                   0       3.45014      54.42777      17.31743      84.92116        81     s54426n17292e         0         0         0         0  
      82  hru082                   0      10.04280      54.42867      17.32453      77.08087        82     s54426n17292e         0         0         0         0  
      83  hru083                   0       8.48163      54.42547      17.33906      75.44868        83     s54426n17292e         0         0         0         0  
      84  hru084                   0       8.70487      54.42690      17.35180      76.24572        84     s54426n17292e         0         0         0         0  
      85  hru085                   0       1.36178      54.42473      17.34671      75.36740        85     s54426n17292e         0         0         0         0  
      86  hru086                   0      12.53143      54.41842      17.35132      77.15293        86     s54426n17292e         0         0         0         0  
      87  hru087                   0       2.51297      54.42249      17.34415      74.16381        87     s54426n17292e         0         0         0         0  
      88  hru088                   0      19.95162      54.42766      17.33436      76.01025        88     s54426n17292e         0         0         0         0  
      89  hru089                   0       3.10952      54.43031      17.30826      82.84582        89     s54426n17292e         0         0         0         0  
      90  hru090                   0       2.47986      54.43109      17.35550      74.05282        90     s54426n17292e         0         0         0         0  
      91  hru091                   0       4.27827      54.43090      17.33461      76.07810        91     s54426n17292e         0         0         0         0  
      92  hru092                   0       0.48455      54.43419      17.35599      75.10681        92     s54426n17292e         0         0         0         0  
      93  hru093                   0      28.96074      54.43142      17.32671      75.90621        93     s54426n17292e         0         0         0         0  
      94  hru094                   0       8.27483      54.43128      17.34012      76.07202        94     s54426n17292e         0         0         0         0  
      95  hru095                   0       0.45745      54.43653      17.34847      72.21570        95     s54426n17292e         0         0         0         0  
      96  hru096                   0      10.63272      54.43541      17.33692      73.40531        96     s54426n17292e         0         0         0         0  
      97  hru097                   0       0.33932      54.43652      17.34285      72.46059        97     s54426n17292e         0         0         0         0  
      98  hru098                   0       0.39019      54.43763      17.35664      71.59292        98     s54426n17292e         0         0         0         0  
      99  hru099                   0       0.52400      54.43786      17.35448      71.72311        99     s54426n17292e         0         0         0         0  
     100  hru100                   0       6.10207      54.43777      17.34955      71.78529       100     s54426n17292e         0         0         0         0  
     101  hru101                   0       2.92783      54.44094      17.30961     100.12210       101     s54426n17292e         0         0         0         0  
     102  hru102                   0       1.27666      54.39578      17.32839      95.72209       102     s54381n17294e         0         0         0         0  
     103  hru103                   0       1.38659      54.42300      17.32486      82.40781       103     s54426n17292e         0         0         0         0  
     104  hru104                   0       2.54879      54.42343      17.30835      89.62623       104     s54426n17292e         0         0         0         0  
     105  hru105                   0       5.11141      54.42289      17.31271      88.11373       105     s54426n17292e         0         0         0         0  
     106  hru106                   0      20.91879      54.39293      17.34478      95.83151       106     s54381n17294e         0         0         0         0  
     107  hru107                   0       3.14551      54.39398      17.32545      95.75639       107     s54381n17294e         0         0         0         0  
     108  hru108                   0       1.89238      54.43691      17.35119      73.99359       108     s54426n17292e         0         0         0         0  
     109  hru109                   0       3.00112      54.42445      17.33314      78.71993       109     s54426n17292e         0         0         0         0  
     110  hru110                   0       4.61266      54.42007      17.32568      87.49918       110     s54426n17292e         0         0         0         0  
     111  hru111                   0       4.49428      54.42341      17.32571      82.17795       111     s54426n17292e         0         0         0         0  
     112  hru112                   0      67.87548      54.40876      17.31300      93.13934       112     s54426n17292e         0         0         0         0  
     113  hru113                   0      18.81430      54.43913      17.35104      75.67208       113     s54426n17292e         0         0         0         0  
     114  hru114                   0       2.37564      54.43373      17.32359      77.42315       114     s54426n17292e         0         0         0         0  
     115  hru115                   0       4.19043      54.38843      17.35263      98.67961       115     s54381n17294e         0         0         0         0  
     116  hru116                   0       6.38544      54.43262      17.35517      74.93578       116     s54426n17292e         0         0         0         0  
     117  hru117                   0       0.58095      54.43119      17.35337      75.89391       117     s54426n17292e         0         0         0         0  
     118  hru118                   0       3.22023      54.43151      17.35808      74.77700       118     s54426n17292e         0         0         0         0  
     119  hru119                   0       5.04438      54.38661      17.36046     101.28604       119     s54381n17294e         0         0         0         0  
     120  hru120                   0       2.25534      54.43121      17.33294      76.26220       120     s54426n17292e         0         0         0         0  
     121  hru121                   0       7.77136      54.43630      17.35453      74.65487       121     s54426n17292e         0         0         0         0  
     122  hru122                   0       4.34168      54.42216      17.33414      79.60410       122     s54426n17292e         0         0         0         0  
     123  hru123                   0       6.03198      54.43183      17.33116      76.07732       123     s54426n17292e         0         0         0         0  
     124  hru124                   0       9.21062      54.42345      17.32835      82.47815       124     s54426n17292e         0         0         0         0  
     125  hru125                   0       3.99994      54.39148      17.32153      97.33749       125     s54381n17294e         0         0         0         0  
     126  hru126                   0      31.29909      54.42728      17.30698      85.37225       126     s54426n17292e         0         0         0         0  
     127  hru127                   0       1.84773      54.39303      17.32115      95.51849       127     s54381n17294e         0         0         0         0  
     128  hru128                   0       1.20708      54.39019      17.32946      97.16948       128     s54381n17294e         0         0         0         0  
     129  hru129                   0       1.26279      54.39173      17.32022      97.44327       129     s54381n17294e         0         0         0         0  
     130  hru130                   0       2.94194      54.42362      17.31765      86.24332       130     s54426n17292e         0         0         0         0  
     131  hru131                   0       2.22830      54.39324      17.32929      96.33864       131     s54381n17294e         0         0         0         0  
     132  hru132                   0       3.37709      54.39366      17.32712      96.71154       132     s54381n17294e         0         0         0         0  
     133  hru133                   0       0.32853      54.42562      17.32569      77.77806       133     s54426n17292e         0         0         0         0  
     134  hru134                   0      58.42144      54.43385      17.28162      91.16804       134     s54426n17292e         0         0         0         0  
     135  hru135                   0       1.22089      54.42025      17.33395      81.02725       135     s54426n17292e         0         0         0         0  
     136  hru136                   0       0.35193      54.42666      17.33838      74.85557       136     s54426n17292e         0         0         0         0  
     137  hru137                   0       4.15601      54.42880      17.32039      80.80610       137     s54426n17292e         0         0         0         0  
     138  hru138                   0       1.17315      54.39022      17.31929     100.06254       138     s54381n17294e         0         0         0         0  
     139  hru139                   0       0.83472      54.42199      17.33741      77.74191       139     s54426n17292e         0         0         0         0  
     140  hru140                   0       0.55891      54.42549      17.32636      78.19717       140     s54426n17292e         0         0         0         0  
     141  hru141                   0       4.83612      54.42380      17.31650      86.92963       141     s54426n17292e         0         0         0         0  
     142  hru142                   0       0.47274      54.43372      17.35421      75.40168       142     s54426n17292e         0         0         0         0  
     143  hru143                   0       3.64358      54.42347      17.31848      85.44356       143     s54426n17292e         0         0         0         0  
     144  hru144                   0       2.58861      54.42329      17.30923      89.19721       144     s54426n17292e         0         0         0         0  
     145  hru145                   0       3.60221      54.42367      17.30717      89.45901       145     s54426n17292e         0         0         0         0  
     146  hru146                   0       5.48700      54.43462      17.35142      75.31492       146     s54426n17292e         0         0         0         0  
     147  hru147                   0       1.33010      54.39071      17.30944      86.68227       147     s54381n17294e         0         0         0         0  
     148  hru148                   0       1.98224      54.39305      17.31719      92.30560       148     s54381n17294e         0         0         0         0  
     149  hru149                   0       9.97063      54.41935      17.31829      87.69318       149     s54426n17292e         0         0         0         0  
     150  hru150                   0      47.53331      54.43935      17.29662      89.74823       150     s54426n17292e         0         0         0         0  
     151  hru151                   0      86.41256      54.44023      17.33136      79.65105       151     s54426n17292e         0         0         0         0  
     152  hru152                   0       0.68247      54.38933      17.34120      91.08701       152     s54381n17294e         0         0         0         0  
     153  hru153                   0      23.97866      54.41504      17.31633      92.12288       153     s54426n17292e         0         0         0         0  
     154  hru154                   0      35.07880      54.41959      17.30998      89.56935       154     s54426n17292e         0         0         0         0  
     155  hru155                   0       1.70475      54.39477      17.32145      93.33598       155     s54381n17294e         0         0         0         0  
     156  hru156                   0       1.71400      54.43411      17.31577      92.02937       156     s54426n17292e         0         0         0         0  
     157  hru157                   0      31.12765      54.44405      17.33648      83.28930       157     s54426n17292e         0         0         0         0  
     158  hru158                   0      22.07487      54.43566      17.31965      88.63951       158     s54426n17292e         0         0         0         0  
     159  hru159                   0       1.96851      54.39164      17.31543      95.21568       159     s54381n17294e         0         0         0         0  
     160  hru160                   0       2.35970      54.43448      17.32480      77.59443       160     s54426n17292e         0         0         0         0  
     161  hru161                   0       6.13711      54.43528      17.32661      76.52506       161     s54426n17292e         0         0         0         0  
     162  hru162                   0      30.09904      54.44205      17.31824      95.40469       162     s54426n17292e         0         0         0         0  
     163  hru163                   0       3.17005      54.42537      17.33550      77.15006       163     s54426n17292e         0         0         0         0  
     164  hru164                   0       5.99746      54.43663      17.34536      73.52424       164     s54426n17292e         0         0         0         0  
     165  hru165                   0       2.02859      54.42113      17.33506      79.76627       165     s54426n17292e         0         0         0         0  
     166  hru166                   0       0.66560      54.42628      17.32560      77.67078       166     s54426n17292e         0         0         0         0  
     167  hru167                   0       4.05641      54.42180      17.31979      84.36958       167     s54426n17292e         0         0         0         0  
     168  hru168                   0       0.68192      54.42571      17.31731      86.59980       168     s54426n17292e         0         0         0         0  
     169  hru169                   0       5.03818      54.42362      17.31404      87.85194       169     s54426n17292e         0         0         0         0  
     170  hru170                   0       0.76158      54.42760      17.31518      84.52320       170     s54426n17292e         0         0         0         0  
     171  hru171                   0      37.60547      54.43084      17.31551      83.13083       171     s54426n17292e         0         0         0         0  
     172  hru172                   0       2.03622      54.42305      17.32421      81.97929       172     s54426n17292e         0         0         0         0  
     173  hru173                   0       1.78876      54.42303      17.32684      83.34169       173     s54426n17292e         0         0         0         0  
     174  hru174                   0       3.67219      54.41959      17.33221      83.66701       174     s54426n17292e         0         0         0         0  
     175  hru175                   0       6.56947      54.42372      17.33119      80.70828       175     s54426n17292e         0         0         0         0  
     176  hru176                   0       3.05332      54.42291      17.33712      77.17441       176     s54426n17292e         0         0         0         0  
     177  hru177                   0       2.30422      54.42719      17.31994      83.98295       177     s54426n17292e         0         0         0         0  
     178  hru178                   0       0.59347      54.42719      17.31838      85.52029       178     s54426n17292e         0         0         0         0  
     179  hru179                   0       1.25916      54.43042      17.34679      74.41964       179     s54426n17292e         0         0         0         0  
     180  hru180                   0      59.08860      54.40308      17.30648      90.24427       180     s54381n17294e         0         0         0         0  
     181  hru181                   0       2.49400      54.42361      17.32995      81.70832       181     s54426n17292e         0         0         0         0  
     182  hru182                   0       0.36441      54.42657      17.32813      77.45160       182     s54426n17292e         0         0         0         0  