landuse.lum: written by SWAT+ editor v2.1.0 on 2026-02-13 13:24 for SWAT+ rev.2.1.4
name                         cal_group          plnt_com               mgt               cn2         cons_prac             urban            urb_ro           ov_mann              tile               sep               vfs              grww               bmp  
agrl1007_lum                      null         nopl_comm              null              null              null              null              null              null              null              null              null              null              null  
agrl1008_lum                      null         nopl_comm              null              null              null              null              null              null              null              null              null              null              null  
agrl1011_lum                      null         nopl_comm              null              null              null              null              null              null              null              null              null              null              null  
agrl1079_lum                      null         nopl_comm              null              null              null              null              null              null              null              null              null              null              null  
agrl1145_lum                      null         nopl_comm              null              null              null              null              null              null              null              null              null              null              null  
agrl1163_lum                      null         nopl_comm              null              null              null              null              null              null              null              null              null              null              null  
agrl1164_lum                      null         nopl_comm              null              null              null              null              null              null              null              null              null              null              null  
agrl1169_lum                      null         nopl_comm              null              null              null              null              null              null              null              null              null              null              null  
agrl1188_lum                      null         nopl_comm              null              null              null              null              null              null              null              null              null              null              null  
agrl1190_lum                      null         nopl_comm              null              null              null              null              null              null              null              null              null              null              null  
agrl1191_lum                      null         nopl_comm              null              null              null              null              null              null              null              null              null              null              null  
agrl1272_lum                      null         nopl_comm              null              null              null              null              null              null              null              null              null              null              null  
agrl1284_lum                      null         nopl_comm              null              null              null              null              null              null              null              null              null              null              null  
agrl1345_lum                      null         nopl_comm              null              null              null              null              null              null              null              null              null              null              null  
agrl1360_lum                      null         nopl_comm              null              null              null              null              null              null              null              null              null              null              null  
agrl1393_lum                      null         nopl_comm              null              null              null              null              null              null              null              null              null              null              null  
agrl1409_lum                      null         nopl_comm              null              null              null              null              null              null              null              null              null              null              null  
agrl1494_lum                      null         nopl_comm              null              null              null              null              null              null              null              null              null              null              null  
agrl1594_lum                      null         nopl_comm              null              null              null              null              null              null              null              null              null              null              null  
agrl1753_lum                      null         nopl_comm              null              null              null              null              null              null              null              null              null              null              null  
agrl1756_lum                      null         nopl_comm              null              null              null              null              null              null              null              null              null              null              null  
agrl1811_lum                      null         nopl_comm              null              null              null              null              null              null              null              null              null              null              null  
agrl1839_lum                      null         nopl_comm              null              null              null              null              null              null              null              null              null              null              null  
agrl1906_lum                      null         nopl_comm              null              null              null              null              null              null              null              null              null              null              null  
agrl1912_lum                      null         nopl_comm              null              null              null              null              null              null              null              null              null              null              null  
agrl20_lum                        null         nopl_comm              null              null              null              null              null              null              null              null              null              null              null  
agrl2007_lum                      null         nopl_comm              null              null              null              null              null              null              null              null              null              null              null  
agrl2015_lum                      null         nopl_comm              null              null              null              null              null              null              null              null              null              null              null  
agrl2016_lum                      null         nopl_comm              null              null              null              null              null              null              null              null              null              null              null  
agrl2017_lum                      null         nopl_comm              null              null              null              null              null              null              null              null              null              null              null  
agrl2026_lum                      null         nopl_comm              null              null              null              null              null              null              null              null              null              null              null  
agrl2027_lum                      null         nopl_comm              null              null              null              null              null              null              null              null              null              null              null  
agrl204_lum                       null         nopl_comm              null              null              null              null              null              null              null              null              null              null              null  
agrl207_lum                       null         nopl_comm              null              null              null              null              null              null              null              null              null              null              null  
agrl2124_lum                      null         nopl_comm              null              null              null              null              null              null              null              null              null              null              null  
agrl2128_lum                      null         nopl_comm              null              null              null              null              null              null              null              null              null              null              null  
agrl2159_lum                      null         nopl_comm              null              null              null              null              null              null              null              null              null              null              null  
agrl2178_lum                      null         nopl_comm              null              null              null              null              null              null              null              null              null              null              null  
agrl218_lum                       null         nopl_comm              null              null              null              null              null              null              null              null              null              null              null  
agrl2248_lum                      null         nopl_comm              null              null              null              null              null              null              null              null              null              null              null  
agrl2272_lum                      null         nopl_comm              null              null              null              null              null              null              null              null              null              null              null  
agrl2284_lum                      null         nopl_comm              null              null              null              null              null              null              null              null              null              null              null  
agrl2316_lum                      null         nopl_comm              null              null              null              null              null              null              null              null              null              null              null  
agrl2343_lum                      null         nopl_comm              null              null              null              null              null              null              null              null              null              null              null  
agrl2440_lum                      null         nopl_comm              null              null              null              null              null              null              null              null              null              null              null  
agrl246_lum                       null         nopl_comm              null              null              null              null              null              null              null              null              null              null              null  
agrl247_lum                       null         nopl_comm              null              null              null              null              null              null              null              null              null              null              null  
agrl2472_lum                      null         nopl_comm              null              null              null              null              null              null              null              null              null              null              null  
agrl253_lum                       null         nopl_comm              null              null              null              null              null              null              null              null              null              null              null  
agrl258_lum                       null         nopl_comm              null              null              null              null              null              null              null              null              null              null              null  
agrl2588_lum                      null         nopl_comm              null              null              null              null              null              null              null              null              null              null              null  
agrl26_lum                        null         nopl_comm              null              null              null              null              null              null              null              null              null              null              null  
agrl2622_lum                      null         nopl_comm              null              null              null              null              null              null              null              null              null              null              null  
agrl2694_lum                      null         nopl_comm              null              null              null              null              null              null              null              null              null              null              null  
agrl2695_lum                      null         nopl_comm              null              null              null              null              null              null              null              null              null              null              null  
agrl270_lum                       null         nopl_comm              null              null              null              null              null              null              null              null              null              null              null  
agrl2871_lum                      null         nopl_comm              null              null              null              null              null              null              null              null              null              null              null  
agrl2891_lum                      null         nopl_comm              null              null              null              null              null              null              null              null              null              null              null  
agrl2894_lum                      null         nopl_comm              null              null              null              null              null              null              null              null              null              null              null  
agrl2960_lum                      null         nopl_comm              null              null              null              null              null              null              null              null              null              null              null  
agrl301_lum                       null         nopl_comm              null              null              null              null              null              null              null              null              null              null              null  
agrl3198_lum                      null         nopl_comm              null              null              null              null              null              null              null              null              null              null              null  
agrl3199_lum                      null         nopl_comm              null              null              null              null              null              null              null              null              null              null              null  
agrl342_lum                       null         nopl_comm              null              null              null              null              null              null              null              null              null              null              null  
agrl343_lum                       null         nopl_comm              null              null              null              null              null              null              null              null              null              null              null  
agrl3438_lum                      null         nopl_comm              null              null              null              null              null              null              null              null              null              null              null  
agrl344_lum                       null         nopl_comm              null              null              null              null              null              null              null              null              null              null              null  
agrl3462_lum                      null         nopl_comm              null              null              null              null              null              null              null              null              null              null              null  
agrl3476_lum                      null         nopl_comm              null              null              null              null              null              null              null              null              null              null              null  
agrl3529_lum                      null         nopl_comm              null              null              null              null              null              null              null              null              null              null              null  
agrl3627_lum                      null         nopl_comm              null              null              null              null              null              null              null              null              null              null              null  
agrl3649_lum                      null         nopl_comm              null              null              null              null              null              null              null              null              null              null              null  
agrl3694_lum                      null         nopl_comm              null              null              null              null              null              null              null              null              null              null              null  
agrl3713_lum                      null         nopl_comm              null              null              null              null              null              null              null              null              null              null              null  
agrl3714_lum                      null         nopl_comm              null              null              null              null              null              null              null              null              null              null              null  
agrl382_lum                       null         nopl_comm              null              null              null              null              null              null              null              null              null              null              null  
agrl3824_lum                      null         nopl_comm              null              null              null              null              null              null              null              null              null              null              null  
agrl3851_lum                      null         nopl_comm              null              null              null              null              null              null              null              null              null              null              null  
agrl386_lum                       null         nopl_comm              null              null              null              null              null              null              null              null              null              null              null  
agrl3972_lum                      null         nopl_comm              null              null              null              null              null              null              null              null              null              null              null  
agrl4024_lum                      null         nopl_comm              null              null              null              null              null              null              null              null              null              null              null  
agrl4061_lum                      null         nopl_comm              null              null              null              null              null              null              null              null              null              null              null  
agrl415_lum                       null         nopl_comm              null              null              null              null              null              null              null              null              null              null              null  
agrl4168_lum                      null         nopl_comm              null              null              null              null              null              null              null              null              null              null              null  
agrl4171_lum                      null         nopl_comm              null              null              null              null              null              null              null              null              null              null              null  
agrl4187_lum                      null         nopl_comm              null              null              null              null              null              null              null              null              null              null              null  
agrl4192_lum                      null         nopl_comm              null              null              null              null              null              null              null              null              null              null              null  
agrl430_lum                       null         nopl_comm              null              null              null              null              null              null              null              null              null              null              null  
agrl4307_lum                      null         nopl_comm              null              null              null              null              null              null              null              null              null              null              null  
agrl4308_lum                      null         nopl_comm              null              null              null              null              null              null              null              null              null              null              null  
agrl4313_lum                      null         nopl_comm              null              null              null              null              null              null              null              null              null              null              null  
agrl4367_lum                      null         nopl_comm              null              null              null              null              null              null              null              null              null              null              null  
agrl4418_lum                      null         nopl_comm              null              null              null              null              null              null              null              null              null              null              null  
agrl4445_lum                      null         nopl_comm              null              null              null              null              null              null              null              null              null              null              null  
agrl4494_lum                      null         nopl_comm              null              null              null              null              null              null              null              null              null              null              null  
agrl4531_lum                      null         nopl_comm              null              null              null              null              null              null              null              null              null              null              null  
agrl4532_lum                      null         nopl_comm              null              null              null              null              null              null              null              null              null              null              null  
agrl4539_lum                      null         nopl_comm              null              null              null              null              null              null              null              null              null              null              null  
agrl4549_lum                      null         nopl_comm              null              null              null              null              null              null              null              null              null              null              null  
agrl4553_lum                      null         nopl_comm              null              null              null              null              null              null              null              null              null              null              null  
agrl4566_lum                      null         nopl_comm              null              null              null              null              null              null              null              null              null              null              null  
agrl4749_lum                      null         nopl_comm              null              null              null              null              null              null              null              null              null              null              null  
agrl4811_lum                      null         nopl_comm              null              null              null              null              null              null              null              null              null              null              null  
agrl4815_lum                      null         nopl_comm              null              null              null              null              null              null              null              null              null              null              null  
agrl4816_lum                      null         nopl_comm              null              null              null              null              null              null              null              null              null              null              null  
agrl4826_lum                      null         nopl_comm              null              null              null              null              null              null              null              null              null              null              null  
agrl4849_lum                      null         nopl_comm              null              null              null              null              null              null              null              null              null              null              null  
agrl4850_lum                      null         nopl_comm              null              null              null              null              null              null              null              null              null              null              null  
agrl4862_lum                      null         nopl_comm              null              null              null              null              null              null              null              null              null              null              null  
agrl4865_lum                      null         nopl_comm              null              null              null              null              null              null              null              null              null              null              null  
agrl4888_drn_lum                  null         nopl_comm              null              null              null              null              null              null         mw24_1000              null              null              null              null  
agrl493_lum                       null         nopl_comm              null              null              null              null              null              null              null              null              null              null              null  
agrl4938_drn_lum                  null         nopl_comm              null              null              null              null              null              null         mw24_1000              null              null              null              null  
agrl5027_drn_lum                  null         nopl_comm              null              null              null              null              null              null         mw24_1000              null              null              null              null  
agrl5035_drn_lum                  null         nopl_comm              null              null              null              null              null              null         mw24_1000              null              null              null              null  