landuse.lum: written by SWAT+ editor v2.1.0 on 2026-02-13 13:24 for SWAT+ rev.2.1.4, edited manually on 2026-02-13 13:25:12.221108 and edited with SWATfarmR 2.0.5 on 2026-02-13 13:31:26.914379
name                         cal_group          plnt_com               mgt               cn2         cons_prac             urban            urb_ro           ov_mann              tile               sep               vfs              grww               bmp
agrl1007_lum_144_1                null agrl1007_comm_144_1 agrl1007_mgt_144_1        rc_strow_g     up_down_slope              null              null     up_down_slope              null              null              null              null              null
agrl1008_lum_145_1                null agrl1008_comm_145_1 agrl1008_mgt_145_1        rc_strow_g     up_down_slope              null              null     up_down_slope              null              null              null              null              null
agrl1011_lum_146_1                null agrl1011_comm_146_1 agrl1011_mgt_146_1        rc_strow_g     up_down_slope              null              null     up_down_slope              null              null              null              null              null
agrl1079_lum_147_1                null agrl1079_comm_147_1 agrl1079_mgt_147_1        rc_strow_g     up_down_slope              null              null     up_down_slope              null              null              null              null              null
agrl1145_lum_148_1                null agrl1145_comm_148_1 agrl1145_mgt_148_1        rc_strow_g     up_down_slope              null              null     up_down_slope              null              null              null              null              null
agrl1163_lum_149_1                null agrl1163_comm_149_1 agrl1163_mgt_149_1        rc_strow_g     up_down_slope              null              null     up_down_slope              null              null              null              null              null
agrl1164_lum_150_1                null agrl1164_comm_150_1 agrl1164_mgt_150_1        rc_strow_g     up_down_slope              null              null     up_down_slope              null              null              null              null              null
agrl1169_lum_151_1                null agrl1169_comm_151_1 agrl1169_mgt_151_1        rc_strow_g     up_down_slope              null              null     up_down_slope              null              null              null              null              null
agrl1188_lum_152_1                null agrl1188_comm_152_1 agrl1188_mgt_152_1        rc_strow_g     up_down_slope              null              null     up_down_slope              null              null              null              null              null
agrl1190_lum_153_1                null agrl1190_comm_153_1 agrl1190_mgt_153_1        rc_strow_g     up_down_slope              null              null     up_down_slope              null              null              null              null              null
agrl1191_lum_154_1                null agrl1191_comm_154_1 agrl1191_mgt_154_1        rc_strow_g     up_down_slope              null              null     up_down_slope              null              null              null              null              null
agrl1272_lum_155_1                null agrl1272_comm_155_1 agrl1272_mgt_155_1        rc_strow_g     up_down_slope              null              null     up_down_slope              null              null              null              null              null
agrl1284_lum_156_1                null agrl1284_comm_156_1 agrl1284_mgt_156_1        rc_strow_g     up_down_slope              null              null     up_down_slope              null              null              null              null              null
agrl1345_lum_157_1                null agrl1345_comm_157_1 agrl1345_mgt_157_1        rc_strow_g     up_down_slope              null              null     up_down_slope              null              null              null              null              null
agrl1360_lum_158_1                null agrl1360_comm_158_1 agrl1360_mgt_158_1        rc_strow_g     up_down_slope              null              null     up_down_slope              null              null              null              null              null
agrl1393_lum_159_1                null agrl1393_comm_159_1 agrl1393_mgt_159_1        rc_strow_g     up_down_slope              null              null     up_down_slope              null              null              null              null              null
agrl1409_lum_160_1                null agrl1409_comm_160_1 agrl1409_mgt_160_1        rc_strow_g     up_down_slope              null              null     up_down_slope              null              null              null              null              null
agrl1494_lum_161_1                null agrl1494_comm_161_1 agrl1494_mgt_161_1        rc_strow_g     up_down_slope              null              null     up_down_slope              null              null              null              null              null
agrl1594_lum_162_1                null agrl1594_comm_162_1 agrl1594_mgt_162_1        rc_strow_g     up_down_slope              null              null     up_down_slope              null              null              null              null              null
agrl1753_lum_171_1                null agrl1753_comm_171_1 agrl1753_mgt_171_1        rc_strow_g     up_down_slope              null              null     up_down_slope              null              null              null              null              null
agrl1756_lum_172_1                null agrl1756_comm_172_1 agrl1756_mgt_172_1        rc_strow_g     up_down_slope              null              null     up_down_slope              null              null              null              null              null
agrl1811_lum_173_1                null agrl1811_comm_173_1 agrl1811_mgt_173_1        rc_strow_g     up_down_slope              null              null     up_down_slope              null              null              null              null              null
agrl1839_lum_174_1                null agrl1839_comm_174_1 agrl1839_mgt_174_1        rc_strow_g     up_down_slope              null              null     up_down_slope              null              null              null              null              null
agrl1906_lum_175_1                null agrl1906_comm_175_1 agrl1906_mgt_175_1        rc_strow_g     up_down_slope              null              null     up_down_slope              null              null              null              null              null
agrl1912_lum_176_1                null agrl1912_comm_176_1 agrl1912_mgt_176_1        rc_strow_g     up_down_slope              null              null     up_down_slope              null              null              null              null              null
agrl2007_lum_180_1                null agrl2007_comm_180_1 agrl2007_mgt_180_1        rc_strow_g     up_down_slope              null              null     up_down_slope              null              null              null              null              null
agrl2015_lum_181_1                null agrl2015_comm_181_1 agrl2015_mgt_181_1        rc_strow_g     up_down_slope              null              null     up_down_slope              null              null              null              null              null
agrl2016_lum_182_1                null agrl2016_comm_182_1 agrl2016_mgt_182_1        rc_strow_g     up_down_slope              null              null     up_down_slope              null              null              null              null              null
agrl2017_lum_183_1                null agrl2017_comm_183_1 agrl2017_mgt_183_1        rc_strow_g     up_down_slope              null              null     up_down_slope              null              null              null              null              null
agrl2026_lum_184_1                null agrl2026_comm_184_1 agrl2026_mgt_184_1        rc_strow_g     up_down_slope              null              null     up_down_slope              null              null              null              null              null
agrl2027_lum_185_1                null agrl2027_comm_185_1 agrl2027_mgt_185_1        rc_strow_g     up_down_slope              null              null     up_down_slope              null              null              null              null              null
agrl204_lum_107_1                 null agrl204_comm_107_1 agrl204_mgt_107_1        rc_strow_g     up_down_slope              null              null     up_down_slope              null              null              null              null              null
agrl207_lum_108_1                 null agrl207_comm_108_1 agrl207_mgt_108_1        rc_strow_g     up_down_slope              null              null     up_down_slope              null              null              null              null              null
agrl20_lum_102_1                  null agrl20_comm_102_1  agrl20_mgt_102_1        rc_strow_g     up_down_slope              null              null     up_down_slope              null              null              null              null              null
agrl2124_lum_186_1                null agrl2124_comm_186_1 agrl2124_mgt_186_1        rc_strow_g     up_down_slope              null              null     up_down_slope              null              null              null              null              null
agrl2128_lum_187_1                null agrl2128_comm_187_1 agrl2128_mgt_187_1        rc_strow_g     up_down_slope              null              null     up_down_slope              null              null              null              null              null
agrl2159_lum_188_1                null agrl2159_comm_188_1 agrl2159_mgt_188_1        rc_strow_g     up_down_slope              null              null     up_down_slope              null              null              null              null              null
agrl2178_lum_189_1                null agrl2178_comm_189_1 agrl2178_mgt_189_1        rc_strow_g     up_down_slope              null              null     up_down_slope              null              null              null              null              null
agrl218_lum_109_1                 null agrl218_comm_109_1 agrl218_mgt_109_1        rc_strow_g     up_down_slope              null              null     up_down_slope              null              null              null              null              null
agrl2248_lum_190_1                null agrl2248_comm_190_1 agrl2248_mgt_190_1        rc_strow_g     up_down_slope              null              null     up_down_slope              null              null              null              null              null
agrl2272_lum_191_1                null agrl2272_comm_191_1 agrl2272_mgt_191_1        rc_strow_g     up_down_slope              null              null     up_down_slope              null              null              null              null              null
agrl2284_lum_192_1                null agrl2284_comm_192_1 agrl2284_mgt_192_1        rc_strow_g     up_down_slope              null              null     up_down_slope              null              null              null              null              null
agrl2316_lum_193_1                null agrl2316_comm_193_1 agrl2316_mgt_193_1        rc_strow_g     up_down_slope              null              null     up_down_slope              null              null              null              null              null
agrl2343_lum_194_1                null agrl2343_comm_194_1 agrl2343_mgt_194_1        rc_strow_g     up_down_slope              null              null     up_down_slope              null              null              null              null              null
agrl2440_lum_195_1                null agrl2440_comm_195_1 agrl2440_mgt_195_1        rc_strow_g     up_down_slope              null              null     up_down_slope              null              null              null              null              null
agrl246_lum_110_1                 null agrl246_comm_110_1 agrl246_mgt_110_1        rc_strow_g     up_down_slope              null              null     up_down_slope              null              null              null              null              null
agrl2472_lum_196_1                null agrl2472_comm_196_1 agrl2472_mgt_196_1        rc_strow_g     up_down_slope              null              null     up_down_slope              null              null              null              null              null
agrl247_lum_111_1                 null agrl247_comm_111_1 agrl247_mgt_111_1        rc_strow_g     up_down_slope              null              null     up_down_slope              null              null              null              null              null
agrl253_lum_112_1                 null agrl253_comm_112_1 agrl253_mgt_112_1        rc_strow_g     up_down_slope              null              null     up_down_slope              null              null              null              null              null
agrl2588_lum_197_1                null agrl2588_comm_197_1 agrl2588_mgt_197_1        rc_strow_g     up_down_slope              null              null     up_down_slope              null              null              null              null              null
agrl258_lum_113_1                 null agrl258_comm_113_1 agrl258_mgt_113_1        rc_strow_g     up_down_slope              null              null     up_down_slope              null              null              null              null              null
agrl2622_lum_198_1                null agrl2622_comm_198_1 agrl2622_mgt_198_1        rc_strow_g     up_down_slope              null              null     up_down_slope              null              null              null              null              null
agrl2694_lum_199_1                null agrl2694_comm_199_1 agrl2694_mgt_199_1        rc_strow_g     up_down_slope              null              null     up_down_slope              null              null              null              null              null
agrl2695_lum_200_1                null agrl2695_comm_200_1 agrl2695_mgt_200_1        rc_strow_g     up_down_slope              null              null     up_down_slope              null              null              null              null              null
agrl26_lum_103_1                  null agrl26_comm_103_1  agrl26_mgt_103_1        rc_strow_g     up_down_slope              null              null     up_down_slope              null              null              null              null              null
agrl270_lum_114_1                 null agrl270_comm_114_1 agrl270_mgt_114_1        rc_strow_g     up_down_slope              null              null     up_down_slope              null              null              null              null              null
agrl2871_lum_201_1                null agrl2871_comm_201_1 agrl2871_mgt_201_1        rc_strow_g     up_down_slope              null              null     up_down_slope              null              null              null              null              null
agrl2891_lum_202_1                null agrl2891_comm_202_1 agrl2891_mgt_202_1        rc_strow_g     up_down_slope              null              null     up_down_slope              null              null              null              null              null
agrl2894_lum_203_1                null agrl2894_comm_203_1 agrl2894_mgt_203_1        rc_strow_g     up_down_slope              null              null     up_down_slope              null              null              null              null              null
agrl2960_lum_204_1                null agrl2960_comm_204_1 agrl2960_mgt_204_1        rc_strow_g     up_down_slope              null              null     up_down_slope              null              null              null              null              null
agrl301_lum_115_1                 null agrl301_comm_115_1 agrl301_mgt_115_1        rc_strow_g     up_down_slope              null              null     up_down_slope              null              null              null              null              null
agrl3198_lum_205_1                null agrl3198_comm_205_1 agrl3198_mgt_205_1        rc_strow_g     up_down_slope              null              null     up_down_slope              null              null              null              null              null
agrl3199_lum_206_1                null agrl3199_comm_206_1 agrl3199_mgt_206_1        rc_strow_g     up_down_slope              null              null     up_down_slope              null              null              null              null              null
agrl342_lum_116_1                 null agrl342_comm_116_1 agrl342_mgt_116_1        rc_strow_g     up_down_slope              null              null     up_down_slope              null              null              null              null              null
agrl3438_lum_207_1                null agrl3438_comm_207_1 agrl3438_mgt_207_1        rc_strow_g     up_down_slope              null              null     up_down_slope              null              null              null              null              null
agrl343_lum_117_1                 null agrl343_comm_117_1 agrl343_mgt_117_1        rc_strow_g     up_down_slope              null              null     up_down_slope              null              null              null              null              null
agrl344_lum_118_1                 null agrl344_comm_118_1 agrl344_mgt_118_1        rc_strow_g     up_down_slope              null              null     up_down_slope              null              null              null              null              null
agrl3462_lum_208_1                null agrl3462_comm_208_1 agrl3462_mgt_208_1        rc_strow_g     up_down_slope              null              null     up_down_slope              null              null              null              null              null
agrl3476_lum_209_1                null agrl3476_comm_209_1 agrl3476_mgt_209_1        rc_strow_g     up_down_slope              null              null     up_down_slope              null              null              null              null              null
agrl3529_lum_210_1                null agrl3529_comm_210_1 agrl3529_mgt_210_1        rc_strow_g     up_down_slope              null              null     up_down_slope              null              null              null              null              null
agrl3627_lum_211_1                null agrl3627_comm_211_1 agrl3627_mgt_211_1        rc_strow_g     up_down_slope              null              null     up_down_slope              null              null              null              null              null
agrl3649_lum_212_1                null agrl3649_comm_212_1 agrl3649_mgt_212_1        rc_strow_g     up_down_slope              null              null     up_down_slope              null              null              null              null              null
agrl3694_lum_213_1                null agrl3694_comm_213_1 agrl3694_mgt_213_1        rc_strow_g     up_down_slope              null              null     up_down_slope              null              null              null              null              null
agrl3713_lum_214_1                null agrl3713_comm_214_1 agrl3713_mgt_214_1        rc_strow_g     up_down_slope              null              null     up_down_slope              null              null              null              null              null
agrl3714_lum_215_1                null agrl3714_comm_215_1 agrl3714_mgt_215_1        rc_strow_g     up_down_slope              null              null     up_down_slope              null              null              null              null              null
agrl3824_lum_216_1                null agrl3824_comm_216_1 agrl3824_mgt_216_1        rc_strow_g     up_down_slope              null              null     up_down_slope              null              null              null              null              null
agrl382_lum_119_1                 null agrl382_comm_119_1 agrl382_mgt_119_1        rc_strow_g     up_down_slope              null              null     up_down_slope              null              null              null              null              null
agrl3851_lum_217_1                null agrl3851_comm_217_1 agrl3851_mgt_217_1        rc_strow_g     up_down_slope              null              null     up_down_slope              null              null              null              null              null
agrl386_lum_120_1                 null agrl386_comm_120_1 agrl386_mgt_120_1        rc_strow_g     up_down_slope              null              null     up_down_slope              null              null              null              null              null
agrl3972_lum_218_1                null agrl3972_comm_218_1 agrl3972_mgt_218_1        rc_strow_g     up_down_slope              null              null     up_down_slope              null              null              null              null              null
agrl4024_lum_219_1                null agrl4024_comm_219_1 agrl4024_mgt_219_1        rc_strow_g     up_down_slope              null              null     up_down_slope              null              null              null              null              null
agrl4061_lum_220_1                null agrl4061_comm_220_1 agrl4061_mgt_220_1        rc_strow_g     up_down_slope              null              null     up_down_slope              null              null              null              null              null
agrl415_lum_121_1                 null agrl415_comm_121_1 agrl415_mgt_121_1        rc_strow_g     up_down_slope              null              null     up_down_slope              null              null              null              null              null
agrl4168_lum_221_1                null agrl4168_comm_221_1 agrl4168_mgt_221_1        rc_strow_g     up_down_slope              null              null     up_down_slope              null              null              null              null              null
agrl4171_lum_222_1                null agrl4171_comm_222_1 agrl4171_mgt_222_1        rc_strow_g     up_down_slope              null              null     up_down_slope              null              null              null              null              null
agrl4187_lum_223_1                null agrl4187_comm_223_1 agrl4187_mgt_223_1        rc_strow_g     up_down_slope              null              null     up_down_slope              null              null              null              null              null
agrl4192_lum_224_1                null agrl4192_comm_224_1 agrl4192_mgt_224_1        rc_strow_g     up_down_slope              null              null     up_down_slope              null              null              null              null              null
agrl4307_lum_225_1                null agrl4307_comm_225_1 agrl4307_mgt_225_1        rc_strow_g     up_down_slope              null              null     up_down_slope              null              null              null              null              null
agrl4308_lum_226_1                null agrl4308_comm_226_1 agrl4308_mgt_226_1        rc_strow_g     up_down_slope              null              null     up_down_slope              null              null              null              null              null
agrl430_lum_122_1                 null agrl430_comm_122_1 agrl430_mgt_122_1        rc_strow_g     up_down_slope              null              null     up_down_slope              null              null              null              null              null
agrl4313_lum_227_1                null agrl4313_comm_227_1 agrl4313_mgt_227_1        rc_strow_g     up_down_slope              null              null     up_down_slope              null              null              null              null              null
agrl4367_lum_228_1                null agrl4367_comm_228_1 agrl4367_mgt_228_1        rc_strow_g     up_down_slope              null              null     up_down_slope              null              null              null              null              null
agrl4418_lum_229_1                null agrl4418_comm_229_1 agrl4418_mgt_229_1        rc_strow_g     up_down_slope              null              null     up_down_slope              null              null              null              null              null
agrl4445_lum_230_1                null agrl4445_comm_230_1 agrl4445_mgt_230_1        rc_strow_g     up_down_slope              null              null     up_down_slope              null              null              null              null              null
agrl4494_lum_231_1                null agrl4494_comm_231_1 agrl4494_mgt_231_1        rc_strow_g     up_down_slope              null              null     up_down_slope              null              null              null              null              null
agrl4531_lum_232_1                null agrl4531_comm_232_1 agrl4531_mgt_232_1        rc_strow_g     up_down_slope              null              null     up_down_slope              null              null              null              null              null
agrl4532_lum_233_1                null agrl4532_comm_233_1 agrl4532_mgt_233_1        rc_strow_g     up_down_slope              null              null     up_down_slope              null              null              null              null              null
agrl4539_lum_234_1                null agrl4539_comm_234_1 agrl4539_mgt_234_1        rc_strow_g     up_down_slope              null              null     up_down_slope              null              null              null              null              null
agrl4549_lum_235_1                null agrl4549_comm_235_1 agrl4549_mgt_235_1        rc_strow_g     up_down_slope              null              null     up_down_slope              null              null              null              null              null
agrl4553_lum_236_1                null agrl4553_comm_236_1 agrl4553_mgt_236_1        rc_strow_g     up_down_slope              null              null     up_down_slope              null              null              null              null              null
agrl4566_lum_237_1                null agrl4566_comm_237_1 agrl4566_mgt_237_1        rc_strow_g     up_down_slope              null              null     up_down_slope              null              null              null              null              null
agrl4749_lum_238_1                null agrl4749_comm_238_1 agrl4749_mgt_238_1        rc_strow_g     up_down_slope              null              null     up_down_slope              null              null              null              null              null
agrl4811_lum_247_1                null agrl4811_comm_247_1 agrl4811_mgt_247_1        rc_strow_g     up_down_slope              null              null     up_down_slope              null              null              null              null              null
agrl4815_lum_248_1                null agrl4815_comm_248_1 agrl4815_mgt_248_1        rc_strow_g     up_down_slope              null              null     up_down_slope              null              null              null              null              null
agrl4816_lum_249_1                null agrl4816_comm_249_1 agrl4816_mgt_249_1        rc_strow_g     up_down_slope              null              null     up_down_slope              null              null              null              null              null
agrl4826_lum_250_1                null agrl4826_comm_250_1 agrl4826_mgt_250_1        rc_strow_g     up_down_slope              null              null     up_down_slope              null              null              null              null              null
agrl4849_lum_274_1                null agrl4849_comm_274_1 agrl4849_mgt_274_1        rc_strow_g     up_down_slope              null              null     up_down_slope              null              null              null              null              null
agrl4850_lum_275_1                null agrl4850_comm_275_1 agrl4850_mgt_275_1        rc_strow_g     up_down_slope              null              null     up_down_slope              null              null              null              null              null
agrl4862_lum_276_1                null agrl4862_comm_276_1 agrl4862_mgt_276_1        rc_strow_g     up_down_slope              null              null     up_down_slope              null              null              null              null              null
agrl4865_lum_277_1                null agrl4865_comm_277_1 agrl4865_mgt_277_1        rc_strow_g     up_down_slope              null              null     up_down_slope              null              null              null              null              null
agrl4888_drn_lum_294_1              null agrl4888_drn_comm_294_1 agrl4888_drn_mgt_294_1        rc_strow_g     up_down_slope              null              null     up_down_slope         mw24_1000              null              null              null              null
agrl4938_drn_lum_295_1              null agrl4938_drn_comm_295_1 agrl4938_drn_mgt_295_1        rc_strow_g     up_down_slope              null              null     up_down_slope         mw24_1000              null              null              null              null
agrl493_lum_123_1                 null agrl493_comm_123_1 agrl493_mgt_123_1        rc_strow_g     up_down_slope              null              null     up_down_slope              null              null              null              null              null
agrl5027_drn_lum_296_1              null agrl5027_drn_comm_296_1 agrl5027_drn_mgt_296_1        rc_strow_g     up_down_slope              null              null     up_down_slope         mw24_1000              null              null              null              null