weather-wgn.cli: written by SWAT+ editor v2.1.0 on 2026-02-13 13:24 for SWAT+ rev.2.1.4
ID1                            54.55000      16.90000      14.40000        27  
 tmp_max_ave   tmp_min_ave    tmp_max_sd    tmp_min_sd       pcp_ave        pcp_sd      pcp_skew       wet_dry       wet_wet      pcp_days       pcp_hhr       slr_ave       dew_ave       wnd_ave  
     2.48402      -1.59496       4.09404       4.82264       1.71131       2.96537       2.95327       0.49180       0.91469      26.48148       8.69594       1.99089       0.85849       5.49407  
     3.59919      -1.05930       4.10320       4.48629       1.47613       2.56268       2.94849       0.45205       0.89141      22.85185       7.93952       4.13218       0.84129       5.45849  
     6.11235       0.58375       4.00230       3.35572       1.29975       2.57421       2.96498       0.40586       0.83612      22.14815       6.66794       8.50269       0.81151       5.20044  
    11.02524       3.96771       5.15235       3.08908       0.98320       2.30037       3.56958       0.31803       0.80594      18.70370       6.71277      14.43526       0.78346       4.98762  
    15.37164       7.98832       4.88445       3.03800       1.60594       3.57481       3.83724       0.34286       0.85811      21.92593      13.20063      18.98135       0.78969       4.54501  
    19.25053      12.00217       4.15876       2.70970       1.93915       4.10714       3.35720       0.46083       0.82968      21.96296      12.46852      20.35215       0.78913       4.61543  
    21.62236      14.58781       3.66317       2.47365       2.75325       6.37733       5.17615       0.44865       0.87270      24.14815      28.08467      18.88608       0.80124       4.54534  
    21.99273      14.56296       3.50037       2.47418       2.90755       5.67022       3.07701       0.45604       0.87328      24.25926      17.63275      15.86386       0.78784       4.37314  
    18.29785      11.37987       3.44768       2.82179       2.56065       5.46982       3.58164       0.43646       0.87281      23.29630      16.37750      10.68159       0.80025       4.71980  
    13.12296       7.36665       3.40739       3.37013       2.56729       4.65425       3.08954       0.46667       0.89665      25.44444      17.04881       5.53260       0.82490       5.06451  
     7.68048       3.44230       3.41727       3.49867       2.12285       3.56209       2.37253       0.53409       0.93352      26.74074       8.58158       2.38979       0.86611       5.01094  
     3.85618      -0.07031       3.93083       4.50813       1.92229       3.08678       2.57753       0.59615       0.91405      27.14815       8.99721       1.44913       0.86955       5.40141  
ID10                           54.42000      16.91000      52.20000        27  
 tmp_max_ave   tmp_min_ave    tmp_max_sd    tmp_min_sd       pcp_ave        pcp_sd      pcp_skew       wet_dry       wet_wet      pcp_days       pcp_hhr       slr_ave       dew_ave       wnd_ave  
     2.04838      -2.34389       4.19701       5.11100       2.02487       3.39611       2.83957       0.49091       0.92435      26.92593      10.51119       2.01105       0.86484       4.73110  
     3.32981      -1.84427       4.19868       4.92933       1.76717       3.04117       3.27859       0.46032       0.90738      23.59259      11.23873       4.17308       0.84367       4.77484  
     6.27126      -0.12141       4.13371       3.69767       1.53075       2.90507       3.00850       0.41333       0.84641      22.66667       9.15754       8.46873       0.80914       4.50315  
    11.84889       3.39214       5.03256       3.27520       1.13474       2.48757       3.41192       0.31690       0.82700      19.48148       6.53041      14.37381       0.76608       4.32076  
    16.39023       7.44623       4.66369       3.33299       1.80973       3.62874       3.25343       0.35526       0.86700      22.55556      11.00812      18.84669       0.76628       3.97080  
    19.94348      11.27757       4.03501       2.90166       2.27507       4.40890       3.13144       0.49738       0.84491      22.92593      13.01599      20.21551       0.77278       3.95962  
    22.15826      13.84223       3.70110       2.54311       3.05544       6.49906       5.46706       0.47273       0.88393      24.88889      29.40716      18.80085       0.79056       3.86659  
    22.37376      13.73276       3.49165       2.56539       2.96430       5.72022       3.46921       0.46784       0.87988      24.66667      20.59269      15.82719       0.78352       3.67809  
    18.26997      10.50127       3.47862       2.94475       2.72772       5.47204       3.26867       0.46203       0.88650      24.14815      15.94553      10.65839       0.80711       3.94533  
    12.92790       6.57667       3.52309       3.50082       2.63598       4.52165       2.76009       0.48148       0.90598      26.00000      13.96958       5.56826       0.83529       4.31248  
     7.27670       2.78981       3.50829       3.58806       2.30472       3.78460       2.40423       0.54795       0.94437      27.29630       8.90489       2.41798       0.87709       4.29085  
     3.38732      -0.79611       4.00595       4.78150       2.22101       3.48334       2.75532       0.63333       0.92236      27.66667      11.48264       1.47320       0.87710       4.63045  
ID11                           54.42000      16.98000      61.30000        27  
 tmp_max_ave   tmp_min_ave    tmp_max_sd    tmp_min_sd       pcp_ave        pcp_sd      pcp_skew       wet_dry       wet_wet      pcp_days       pcp_hhr       slr_ave       dew_ave       wnd_ave  
     1.97448      -2.49112       4.21897       5.19207       2.06906       3.51474       2.92655       0.50459       0.92308      26.96296      11.19010       2.00345       0.86617       4.62737  
     3.27177      -2.01398       4.22616       5.06084       1.79861       3.12082       3.42798       0.46512       0.90379      23.48148      12.14901       4.16648       0.84447       4.69634  
     6.27946      -0.27221       4.17752       3.78627       1.56535       2.98907       3.06438       0.41518       0.84666      22.70370       9.35928       8.46793       0.80981       4.40871  
    11.99362       3.26411       5.05863       3.33700       1.14137       2.50648       3.42066       0.31579       0.82667      19.44444       6.50609      14.37992       0.76455       4.22761  
    16.57807       7.30586       4.67131       3.42951       1.83538       3.68925       3.26252       0.35808       0.86513      22.51852      10.95341      18.85199       0.76318       3.89237  
    20.07097      11.09336       4.04485       2.98687       2.27734       4.37870       3.10337       0.50000       0.84516      22.96296      12.42521      20.20851       0.77091       3.86119  
    22.26949      13.66377       3.74516       2.59708       3.08851       6.57958       5.43241       0.47853       0.88427      24.96296      31.00320      18.76822       0.78992       3.76189  
    22.45915      13.55440       3.52845       2.61419       2.91971       5.59708       3.49430       0.46512       0.87970      24.62963      20.43198      15.81002       0.78364       3.57154  
    18.26629      10.32156       3.49972       2.99844       2.76233       5.51820       3.17406       0.45912       0.88633      24.11111      15.54586      10.66003       0.80898       3.82850  
    12.89290       6.42110       3.54814       3.55087       2.65346       4.59322       2.87917       0.48889       0.90456      26.00000      15.00713       5.56216       0.83746       4.21054  
     7.20645       2.65868       3.52896       3.62717       2.35626       3.89798       2.42200       0.55405       0.94293      27.25926       9.02457       2.40797       0.87949       4.18742  
     3.30651      -0.94252       4.02340       4.86394       2.26158       3.57073       2.75747       0.63333       0.92236      27.66667      11.91840       1.46516       0.87843       4.51831  
ID12                           54.42000      17.06000      30.30000        27  
 tmp_max_ave   tmp_min_ave    tmp_max_sd    tmp_min_sd       pcp_ave        pcp_sd      pcp_skew       wet_dry       wet_wet      pcp_days       pcp_hhr       slr_ave       dew_ave       wnd_ave  
     1.88633      -2.67223       4.24852       5.29953       2.08098       3.55867       2.99197       0.50459       0.92308      26.96296      11.47922       1.99643       0.86790       4.47853  
     3.20206      -2.22609       4.26567       5.23549       1.81683       3.15717       3.47536       0.46923       0.90205      23.44444      12.58668       4.16220       0.84550       4.58000  
     6.29181      -0.45779       4.24337       3.90400       1.57724       3.02110       3.11217       0.41518       0.84666      22.70370       9.54544       8.46347       0.81051       4.26988  
    12.17872       3.10676       5.11249       3.42621       1.14830       2.52724       3.43044       0.31579       0.82667      19.44444       6.44189      14.38153       0.76214       4.09059  
    16.81747       7.12880       4.70488       3.56629       1.85609       3.73549       3.25669       0.35808       0.86513      22.51852      11.18288      18.84584       0.75878       3.77812  
    20.23540      10.85854       4.07660       3.11090       2.29380       4.38735       3.09045       0.50265       0.84541      23.00000      12.68470      20.18930       0.76817       3.72062  
    22.41325      13.43357       3.81858       2.68164       3.13948       6.70903       5.42134       0.47853       0.88427      24.96296      31.86941      18.72512       0.78888       3.61176  
    22.57115      13.33142       3.59332       2.68806       2.87978       5.46847       3.45711       0.46512       0.87970      24.62963      20.24012      15.78526       0.78370       3.41954  
    18.26432      10.09831       3.53558       3.07360       2.77582       5.54505       3.13076       0.45912       0.88633      24.11111      15.36730      10.65848       0.81160       3.65887  
    12.85036       6.22965       3.58366       3.62063       2.65903       4.67354       3.10264       0.48889       0.90456      26.00000      16.39687       5.55805       0.84043       4.06190  
     7.12106       2.49596       3.55817       3.68424       2.37697       3.93741       2.41792       0.55405       0.94293      27.25926       9.52492       2.39921       0.88272       4.04096  
     3.20939      -1.12373       4.04957       4.97551       2.28431       3.61079       2.73886       0.63333       0.92236      27.66667      12.02820       1.45798       0.88014       4.35957  
ID13                           54.42000      17.14000      69.90000        27  
 tmp_max_ave   tmp_min_ave    tmp_max_sd    tmp_min_sd       pcp_ave        pcp_sd      pcp_skew       wet_dry       wet_wet      pcp_days       pcp_hhr       slr_ave       dew_ave       wnd_ave  
     1.81161      -2.83367       4.27694       5.40372       2.03506       3.43912       2.97355       0.50000       0.92455      27.00000      10.85083       1.99014       0.86961       4.32240  
     3.14096      -2.42059       4.30721       5.40612       1.79783       3.09562       3.39457       0.45600       0.90909      23.62963      12.37354       4.15937       0.84651       4.45641  
     6.30307      -0.62367       4.31304       4.01714       1.54611       2.95310       3.16306       0.42009       0.84951      22.88889       9.57849       8.45484       0.81102       4.12186  
    12.34848       2.96464       5.18157       3.51927       1.16310       2.53752       3.41949       0.32509       0.82353      19.51852       6.32487      14.37820       0.75935       3.94350  
    17.03714       6.96326       4.75731       3.70740       1.85530       3.67520       3.16588       0.35841       0.86743      22.62963      10.26348      18.82798       0.75411       3.65772  
    20.39021      10.63760       4.12566       3.24127       2.32590       4.36927       3.06814       0.50267       0.84751      23.07407      13.78722      20.15840       0.76518       3.57376  
    22.54979      13.21457       3.90311       2.77676       3.19938       6.75499       5.41533       0.47500       0.88774      25.07407      32.46436      18.67360       0.78776       3.45359  
    22.67910      13.12818       3.67036       2.76789       2.81693       5.17740       3.12615       0.46471       0.88156      24.70370      17.68935      15.75345       0.78382       3.25968  
    18.26632       9.89670       3.57873       3.14929       2.72760       5.42858       3.13302       0.45570       0.88804      24.14815      15.31829      10.65318       0.81442       3.47668  
    12.81311       6.05953       3.61965       3.69199       2.64000       4.74569       3.56525       0.52419       0.90743      26.40741      18.55633       5.55541       0.84358       3.90272  
     7.04716       2.34927       3.58766       3.74481       2.33810       3.82158       2.33046       0.57576       0.94758      27.55556       8.59146       2.39176       0.88604       3.88838  
     3.12683      -1.28582       4.07720       5.08591       2.26966       3.54872       2.65005       0.61628       0.92810      27.81481      11.15819       1.45183       0.88187       4.19426  
ID14                           54.42000      17.21000      97.60000        27  
 tmp_max_ave   tmp_min_ave    tmp_max_sd    tmp_min_sd       pcp_ave        pcp_sd      pcp_skew       wet_dry       wet_wet      pcp_days       pcp_hhr       slr_ave       dew_ave       wnd_ave  
     1.76814      -2.92992       4.29263       5.46307       2.01079       3.43690       3.07979       0.49541       0.92445      26.96296      10.89528       1.98494       0.87079       4.19534  
     3.10596      -2.53852       4.33391       5.50405       1.78976       3.12930       3.41393       0.45238       0.90895      23.59259      12.29528       4.15701       0.84714       4.35264  
     6.31597      -0.72164       4.35883       4.08109       1.52060       2.94990       3.28903       0.41629       0.84903      22.81481       9.58381       8.44181       0.81093       4.00221  
    12.45677       2.87499       5.22738       3.57805       1.18151       2.59615       3.43370       0.32746       0.82129      19.48148       6.57828      14.36941       0.75619       3.82314  
    17.17505       6.86262       4.79258       3.79668       1.84633       3.68623       3.14892       0.35965       0.86535      22.55556      10.23309      18.79830       0.74977       3.56188  
    20.49460      10.50575       4.16434       3.31754       2.34965       4.46665       3.13942       0.50000       0.84727      23.03704      15.19519      20.11645       0.76216       3.45945  
    22.63772      13.07981       3.95726       2.83406       3.24955       6.92372       5.30622       0.46914       0.88741      25.00000      33.23407      18.61599       0.78659       3.32829  
    22.74757      13.00566       3.71943       2.81248       2.75449       5.08345       3.02746       0.46471       0.88156      24.70370      16.81972      15.71558       0.78391       3.13192  
    18.27284       9.77373       3.61128       3.18974       2.70940       5.45480       3.17662       0.45570       0.88804      24.14815      15.34564      10.64380       0.81683       3.32462  
    12.79152       5.95832       3.64263       3.73362       2.63798       4.91593       4.11365       0.52000       0.90730      26.37037      20.90954       5.55393       0.84616       3.76767  
     7.00458       2.26119       3.60480       3.77930       2.33384       3.84112       2.32933       0.56716       0.94751      27.51852       8.46001       2.38584       0.88856       3.76507  
     3.07982      -1.37976       4.09338       5.14710       2.27364       3.57927       2.61191       0.62069       0.92667      27.77778      10.28818       1.44724       0.88318       4.06111  
ID15                           54.43000      17.29000      91.10000        27  
 tmp_max_ave   tmp_min_ave    tmp_max_sd    tmp_min_sd       pcp_ave        pcp_sd      pcp_skew       wet_dry       wet_wet      pcp_days       pcp_hhr       slr_ave       dew_ave       wnd_ave  
     1.75302      -2.95515       4.29009       5.45928       2.13457       3.71860       3.11209       0.49558       0.92127      26.81481      12.01794       1.98117       0.87112       4.11435  
     3.10042      -2.56307       4.33615       5.49355       1.89769       3.36794       3.32633       0.45385       0.90521      23.44444      12.29908       4.15437       0.84708       4.28050  
     6.33988      -0.74601       4.36937       4.07834       1.58538       3.12797       3.55623       0.41441       0.84878      22.77778      11.60877       8.42433       0.80979       3.93217  
    12.50131       2.83751       5.22464       3.58288       1.26025       2.86513       3.66308       0.32517       0.82061      19.40741       8.89692      14.35426       0.75244       3.75089  
    17.22361       6.84470       4.78640       3.80563       1.89963       3.78652       3.20638       0.36681       0.86184      22.51852      11.20986      18.75614       0.74586       3.50780  
    20.54258      10.49403       4.17016       3.30239       2.43799       4.68635       3.24422       0.49741       0.84279      22.85185      16.99904      20.06342       0.75909       3.39944  
    22.66348      13.06070       3.95346       2.82178       3.42369       7.36342       5.01965       0.46914       0.88741      25.00000      33.60715      18.55372       0.78519       3.25919  
    22.76158      12.97680       3.71282       2.79613       2.71261       5.05977       3.06381       0.45882       0.88306      24.70370      15.65641      15.67271       0.78384       3.05742  
    18.28325       9.73564       3.62020       3.17805       2.71098       5.45462       3.18345       0.44785       0.88563      23.96296      15.26548      10.63009       0.81844       3.22608  
    12.78785       5.92992       3.64709       3.72825       2.63182       5.01157       4.57702       0.51938       0.90395      26.22222      23.18259       5.55345       0.84769       3.67347  
     6.99386       2.24006       3.60335       3.76836       2.42304       4.01294       2.36897       0.54930       0.94587      27.37037       9.44058       2.38193       0.88968       3.68720  
     3.06622      -1.39495       4.09048       5.13277       2.39816       3.78178       2.57121       0.60227       0.92790      27.74074      10.20041       1.44479       0.88403       3.97806  
ID16                           54.38000      16.99000      33.20000        27  
 tmp_max_ave   tmp_min_ave    tmp_max_sd    tmp_min_sd       pcp_ave        pcp_sd      pcp_skew       wet_dry       wet_wet      pcp_days       pcp_hhr       slr_ave       dew_ave       wnd_ave  
     1.89106      -2.61208       4.23745       5.22528       2.06206       3.42831       2.80921       0.50000       0.92613      27.07407      10.13469       2.01127       0.86791       4.40406  
     3.22830      -2.12942       4.24088       5.10047       1.81109       3.09708       3.42426       0.46721       0.90952      23.74074      12.19802       4.18207       0.84517       4.48682  
     6.32143      -0.37230       4.21500       3.83269       1.58467       2.96499       3.05102       0.41818       0.84927      22.85185      10.04959       8.45878       0.80824       4.20813  
    12.12983       3.18290       5.06308       3.36190       1.17056       2.52712       3.48630       0.32500       0.82642      19.62963       6.62235      14.35805       0.75847       4.03794  
    16.74079       7.25094       4.66632       3.47078       1.87729       3.62975       3.13646       0.36161       0.86786      22.70370      10.54576      18.80375       0.75599       3.72836  
    20.19426      11.02177       4.04879       3.00505       2.34894       4.32241       2.96645       0.50267       0.84751      23.07407      12.90011      20.15911       0.76505       3.68116  
    22.35256      13.57530       3.76706       2.59929       3.18207       6.58551       5.50140       0.47771       0.88971      25.18519      31.56016      18.73365       0.78569       3.57737  
    22.51383      13.44119       3.54012       2.62165       2.89488       5.29370       3.14078       0.47024       0.88191      24.77778      16.62482      15.79935       0.78182       3.38277  
    18.26430      10.19104       3.52002       3.00565       2.69226       5.31914       3.23509       0.46452       0.88855      24.25926      16.21527      10.65384       0.81046       3.61269  
    12.85537       6.29951       3.57324       3.56361       2.59376       4.39492       2.81525       0.52846       0.90756      26.44444      13.76480       5.57632       0.84012       3.99362  
     7.13267       2.55792       3.54529       3.63198       2.30730       3.72016       2.35946       0.56250       0.95040      27.62963       8.78522       2.41869       0.88225       3.98771  
     3.22110      -1.05234       4.04089       4.88697       2.26363       3.50151       2.69342       0.61905       0.92961      27.88889      11.69729       1.47445       0.88070       4.30440  
ID17                           54.38000      17.06000      32.40000        27  
 tmp_max_ave   tmp_min_ave    tmp_max_sd    tmp_min_sd       pcp_ave        pcp_sd      pcp_skew       wet_dry       wet_wet      pcp_days       pcp_hhr       slr_ave       dew_ave       wnd_ave  
     1.83730      -2.72617       4.25340       5.29288       2.07506       3.46960       2.84056       0.50000       0.92613      27.07407      10.21371       2.00468       0.86917       4.31151  
     3.18208      -2.26629       4.26560       5.21250       1.82928       3.13771       3.49953       0.45528       0.91094      23.70370      12.61973       4.17658       0.84605       4.41908  
     6.32450      -0.49217       4.25660       3.90489       1.59693       2.99740       3.10778       0.42009       0.84951      22.88889      10.38733       8.45435       0.80884       4.12327  
    12.24113       3.07730       5.09974       3.41872       1.17972       2.55487       3.51040       0.32500       0.82642      19.62963       6.83396      14.35989       0.75680       3.95282  
    16.88691       7.13283       4.68927       3.55949       1.89598       3.66509       3.12342       0.36161       0.86786      22.70370      10.33908      18.79794       0.75296       3.65911  
    20.29702      10.86854       4.07020       3.08329       2.37918       4.35264       2.93557       0.50267       0.84751      23.07407      12.56920      20.14179       0.76309       3.59314  
    22.44289      13.42631       3.81278       2.65324       3.24468       6.75237       5.61717       0.47771       0.88971      25.18519      32.60417      18.69469       0.78503       3.48205  
    22.58419      13.29950       3.58191       2.66563       2.87092       5.21364       3.06307       0.47024       0.88191      24.77778      15.97555      15.77727       0.78206       3.28592  
    18.26415      10.04944       3.54375       3.05192       2.69320       5.33741       3.24138       0.45860       0.88821      24.18519      16.18944      10.65258       0.81242       3.50260  
    12.82879       6.17974       3.59347       3.60752       2.59939       4.44948       2.93844       0.52846       0.90756      26.44444      14.50146       5.57178       0.84232       3.90106  
     7.08070       2.45571       3.56096       3.66674       2.31681       3.73702       2.34939       0.56250       0.95040      27.62963       8.84297       2.41012       0.88462       3.89705  
     3.16240      -1.16510       4.05415       4.95595       2.28316       3.53692       2.69411       0.62353       0.92819      27.85185      11.76492       1.46790       0.88199       4.20522  
ID18                           54.38000      17.14000      79.40000        27  
 tmp_max_ave   tmp_min_ave    tmp_max_sd    tmp_min_sd       pcp_ave        pcp_sd      pcp_skew       wet_dry       wet_wet      pcp_days       pcp_hhr       slr_ave       dew_ave       wnd_ave  
     1.79036      -2.82938       4.26805       5.35600       2.07070       3.46300       2.86819       0.50000       0.92613      27.07407      10.11493       1.99890       0.87041       4.21323  
     3.14144      -2.39210       4.29085       5.31777       1.82990       3.12899       3.51777       0.45528       0.91094      23.70370      12.72041       4.17237       0.84679       4.34486  
     6.33024      -0.60086       4.29941       3.97239       1.59329       2.99109       3.14515       0.42009       0.84951      22.88889      10.40139       8.44649       0.80921       4.03185  
    12.34726       2.97980       5.14084       3.47616       1.19155       2.57403       3.49842       0.32500       0.82642      19.62963       6.84726      14.35722       0.75468       3.86060  
    17.02493       7.02331       4.71839       3.64799       1.90704       3.67008       3.10159       0.36161       0.86786      22.70370      10.15824      18.78187       0.74956       3.58536  
    20.39670      10.72657       4.09886       3.16019       2.40289       4.36826       2.91889       0.50267       0.84751      23.07407      12.26109      20.11432       0.76080       3.50090  
    22.52921      13.28608       3.86122       2.70886       3.28984       6.82566       5.61975       0.47771       0.88971      25.18519      33.25915      18.64879       0.78427       3.38116  
    22.65152      13.16948       3.62663       2.70929       2.83275       5.08432       2.93565       0.47024       0.88191      24.77778      14.93343      15.74917       0.78223       3.18351  
    18.26653       9.91939       3.57039       3.09577       2.67579       5.30021       3.23446       0.45860       0.88821      24.18519      15.90640      10.64804       0.81450       3.38344  
    12.80530       6.07143       3.61368       3.64973       2.59263       4.49322       3.13922       0.52846       0.90756      26.44444      15.73848       5.56858       0.84459       3.80023  
     7.03479       2.36267       3.57612       3.70076       2.31325       3.71994       2.32974       0.56250       0.95040      27.62963       8.79928       2.40298       0.88697       3.80159  
     3.11113      -1.26651       4.06740       5.02069       2.29189       3.54329       2.67758       0.62353       0.92819      27.85185      11.55254       1.46241       0.88324       4.10074  
ID19                           54.38000      17.22000      55.70000        27  
 tmp_max_ave   tmp_min_ave    tmp_max_sd    tmp_min_sd       pcp_ave        pcp_sd      pcp_skew       wet_dry       wet_wet      pcp_days       pcp_hhr       slr_ave       dew_ave       wnd_ave  
     1.75697      -2.90101       4.27688       5.39556       2.07058       3.46886       2.92680       0.49533       0.92603      27.03704      10.19548       1.99406       0.87132       4.12880  
     3.11439      -2.47845       4.30875       5.38250       1.82672       3.11227       3.46439       0.45902       0.91108      23.74074      12.53197       4.16874       0.84725       4.27772  
     6.34081      -0.67555       4.33135       4.01513       1.58373       2.97751       3.18617       0.41743       0.85137      22.92593      10.18484       8.43492       0.80909       3.95407  
    12.42659       2.90818       5.16933       3.51578       1.20826       2.60522       3.47815       0.32740       0.82420      19.59259       6.73024      14.34965       0.75210       3.78127  
    17.12545       6.94985       4.73867       3.70908       1.91345       3.66527       3.09568       0.36323       0.86808      22.74074       9.97512      18.75555       0.74613       3.52398  
    20.47403      10.63479       4.12285       3.20668       2.41654       4.38044       2.93190       0.50267       0.84751      23.07407      13.38565      20.07715       0.75834       3.42594  
    22.59132      13.19257       3.89348       2.74381       3.32332       6.83920       5.43606       0.47771       0.88971      25.18519      33.51863      18.59758       0.78332       3.29751  
    22.69791      13.08095       3.65556       2.73420       2.77697       4.93349       2.82746       0.47024       0.88191      24.77778      14.17473      15.71578       0.78228       3.09765  
    18.27143       9.82797       3.59178       3.12122       2.65770       5.24228       3.19876       0.45860       0.88821      24.18519      15.25218      10.63989       0.81630       3.27924  
    12.78929       5.99662       3.62841       3.67598       2.57727       4.54705       3.48031       0.52846       0.90756      26.44444      17.69619       5.56647       0.84647       3.71004  
     7.00314       2.29880       3.58570       3.72018       2.31970       3.71743       2.29118       0.56250       0.95040      27.62963       8.61616       2.39737       0.88884       3.72040  
     3.07568      -1.33365       4.07565       5.05821       2.30320       3.54930       2.64224       0.61628       0.92810      27.81481      11.17832       1.45825       0.88426       4.01207  
ID2                            54.56000      16.98000      26.50000        27  
 tmp_max_ave   tmp_min_ave    tmp_max_sd    tmp_min_sd       pcp_ave        pcp_sd      pcp_skew       wet_dry       wet_wet      pcp_days       pcp_hhr       slr_ave       dew_ave       wnd_ave  
     2.33953      -1.85732       4.12470       4.92487       1.92260       3.24561       2.90237       0.48696       0.92105      26.74074       9.65067       1.98248       0.86026       5.30536  
     3.50269      -1.34200       4.13206       4.65238       1.67017       2.86161       3.12235       0.43796       0.90256      23.18519       9.91244       4.12829       0.84202       5.30072  